
     RDKit          3D

121128  0  0  0  0  0  0  0  0999 V2000
  -12.0321    4.4923   -3.1152 C   0  0  0  0  0  0  0  0  0  0  0  0
  -11.0753    5.4071   -2.6402 O   0  0  0  0  0  0  0  0  0  1  0  0
   -9.8355    5.0672   -2.1593 C   0  0  0  0  0  0  0  0  0  2  0  0
   -9.4247    3.7495   -2.1072 C   0  0  0  0  0  0  0  0  0  3  0  0
   -8.1638    3.4236   -1.6192 C   0  0  0  0  0  0  0  0  0  4  0  0
   -7.3792    4.4684   -1.2049 C   0  0  0  0  0  0  0  0  0  5  0  0
   -7.7715    5.7942   -1.2477 C   0  0  0  0  0  0  0  0  0  6  0  0
   -9.0189    6.1076   -1.7315 C   0  0  0  0  0  0  0  0  0  7  0  0
   -9.4006    7.4264   -1.7698 O   0  0  0  0  0  0  0  0  0  8  0  0
   -8.5484    8.4415   -1.3313 C   0  0  0  0  0  0  0  0  0  9  0  0
   -6.2196    3.9388   -0.7845 N   0  0  0  0  0  0  0  0  0 10  0  0
   -6.2397    2.5859   -0.9185 C   0  0  0  0  0  0  0  0  0 11  0  0
   -5.1726    1.7315   -0.5973 C   0  0  0  0  0  0  0  0  0 12  0  0
   -3.8819    1.5352   -1.1610 C   0  0  0  0  0  0  0  0  0 13  0  0
   -3.5964    2.3024   -2.2687 O   0  0  0  0  0  0  0  0  0 14  0  0
   -2.5867    2.4642   -3.1448 C   0  0  0  0  0  0  0  0  0 15  0  0
   -2.3735    1.2313   -3.9939 C   0  0  0  0  0  0  0  0  0 16  0  0
   -1.3797    1.3098   -4.9174 O   0  0  0  0  0  0  0  0  0 17  0  0
   -1.5319    2.3295   -5.8030 C   0  0  0  0  0  0  0  0  0 18  0  0
   -2.8066    2.3184   -6.5528 C   0  0  0  0  0  0  0  0  0 19  0  0
   -3.1265    1.2912   -7.3084 O   0  0  0  0  0  0  0  0  0 20  0  0
   -2.5473    0.8782   -8.4115 C   0  0  0  0  0  0  0  0  0 21  0  0
   -1.1300    0.4073   -8.3417 C   0  0  0  0  0  0  0  0  0 22  0  0
   -0.9743   -0.6604   -7.4756 O   0  0  0  0  0  0  0  0  0 23  0  0
    0.3493   -1.0506   -7.4931 C   0  0  0  0  0  0  0  0  0 24  0  0
   -3.0850    0.6473   -0.5656 C   0  0  0  0  0  0  0  0  0 25  0  0
   -3.4484   -0.0583    0.5278 C   0  0  0  0  0  0  0  0  0 26  0  0
   -5.1700    0.5493    0.8470 S   0  0  0  0  0  0  0  0  0 27  0  0
   -2.9361   -1.0101    1.4367 C   0  0  0  0  0  0  0  0  0 28  0  0
   -3.7771   -1.6491    2.3372 C   0  0  0  0  0  0  0  0  0 29  0  0
   -3.2856   -2.4896    3.3289 C   0  0  0  0  0  0  0  0  0 30  0  0
   -1.9269   -2.6937    3.4244 C   0  0  0  0  0  0  0  0  0 31  0  0
   -1.4689   -3.5627    4.4965 C   0  0  0  0  0  0  0  0  0 32  0  0
   -0.2376   -3.6811    5.1117 C   0  0  0  0  0  0  0  0  0 33  0  0
   -0.1338   -4.5096    6.1596 C   0  0  0  0  0  0  0  0  0 34  0  0
    1.0465   -4.7286    6.8806 O   0  0  0  0  0  0  0  0  0 35  0  0
    2.2947   -4.1967    6.7558 C   0  0  0  0  0  0  0  0  0 36  0  0
    2.4620   -2.7293    6.9775 C   0  0  0  0  0  0  0  0  0 37  0  0
    3.8374   -2.4263    6.7949 O   0  0  0  0  0  0  0  0  0 38  0  0
    4.0723   -1.0829    6.9470 C   0  0  0  0  0  0  0  0  0 39  0  0
    5.5151   -0.7289    6.7809 C   0  0  0  0  0  0  0  0  0 40  0  0
    6.2770   -1.4152    7.7514 O   0  0  0  0  0  0  0  0  0 41  0  0
    7.6052   -1.1202    7.6661 C   0  0  0  0  0  0  0  0  0 42  0  0
    8.5256   -1.7751    8.6333 C   0  0  0  0  0  0  0  0  0 43  0  0
    8.3107   -1.5354    9.9566 O   0  0  0  0  0  0  0  0  0 44  0  0
    7.1078   -1.9917   10.4039 C   0  0  0  0  0  0  0  0  0 45  0  0
   -1.2693   -5.1889    6.5433 C   0  0  0  0  0  0  0  0  0 46  0  0
   -1.4646   -6.1146    7.6520 C   0  0  0  0  0  0  0  0  0 47  0  0
   -0.6911   -6.3740    8.7073 N   0  0  0  0  0  0  0  0  0 48  0  0
   -2.5243   -7.0021    7.7293 C   0  0  0  0  0  0  0  0  0 49  0  0
   -2.3439   -7.7865    8.8565 C   0  0  0  0  0  0  0  0  0 50  0  0
   -1.1816   -7.3718    9.4584 C   0  0  0  0  0  0  0  0  0 51  0  0
   -0.7056   -7.9925   10.6177 C   0  0  0  0  0  0  0  0  0 52  0  0
   -1.4062   -9.0342   11.1636 C   0  0  0  0  0  0  0  0  0 53  0  0
   -2.5906   -9.4829   10.5809 C   0  0  0  0  0  0  0  0  0 54  0  0
   -3.2385  -10.5168   11.1693 O   0  0  0  0  0  0  0  0  0 55  0  0
   -4.4048  -11.1549   10.7439 C   0  0  0  0  0  0  0  0  0 56  0  0
   -3.0532   -8.8496    9.4216 C   0  0  0  0  0  0  0  0  0 57  0  0
   -0.9501   -9.6922   12.3412 O   0  0  0  0  0  0  0  0  0 58  0  0
    0.1736   -9.2767   13.0488 C   0  0  0  0  0  0  0  0  0 59  0  0
   -2.5115   -4.6466    5.4068 S   0  0  0  0  0  0  0  0  0 60  0  0
   -1.0975   -2.0573    2.5209 C   0  0  0  0  0  0  0  0  0 61  0  0
    0.3069   -2.2486    2.5740 N   0  0  0  0  0  0  0  0  0 62  0  0
    0.8872   -1.2050    1.1785 S   0  0  0  0  0  0  0  0  0 63  0  0
   -0.6220   -0.6862    0.7260 N   0  0  0  0  0  0  0  0  0 64  0  0
   -1.5777   -1.2791    1.6023 C   0  0  0  0  0  0  0  0  0 65  0  0
   -7.4482    2.2676   -1.4366 C   0  0  0  0  0  0  0  0  0 66  0  0
  -12.8562    5.0604   -3.5878 H   0  0  0  0  0  0  0  0  0  0  0  0
  -12.4756    3.9273   -2.2612 H   0  0  0  0  0  0  0  0  0  0  0  0
  -11.5973    3.8145   -3.8673 H   0  0  0  0  0  0  0  0  0  0  0  0
  -10.0401    2.9218   -2.4284 H   0  0  0  0  0  0  0  0  0  0  0  0
   -7.0662    6.5447   -0.8985 H   0  0  0  0  0  0  0  0  0  0  0  0
   -9.1315    9.3848   -1.1423 H   0  0  0  0  0  0  0  0  0  0  0  0
   -8.0062    8.2434   -0.3959 H   0  0  0  0  0  0  0  0  0  0  0  0
   -7.8362    8.6416   -2.1741 H   0  0  0  0  0  0  0  0  0  0  0  0
   -5.3932    4.4824   -0.4014 H   0  0  0  0  0  0  0  0  0  0  0  0
   -1.6032    2.6493   -2.5843 H   0  0  0  0  0  0  0  0  0  0  0  0
   -2.7391    3.3925   -3.7569 H   0  0  0  0  0  0  0  0  0  0  0  0
   -3.3521    1.0443   -4.5382 H   0  0  0  0  0  0  0  0  0  0  0  0
   -2.2166    0.3911   -3.2673 H   0  0  0  0  0  0  0  0  0  0  0  0
   -0.6244    2.3511   -6.4713 H   0  0  0  0  0  0  0  0  0  0  0  0
   -1.4786    3.3380   -5.2720 H   0  0  0  0  0  0  0  0  0  0  0  0
   -2.8081    3.2854   -7.2222 H   0  0  0  0  0  0  0  0  0  0  0  0
   -3.6271    2.5622   -5.7815 H   0  0  0  0  0  0  0  0  0  0  0  0
   -2.6009    1.6776   -9.2453 H   0  0  0  0  0  0  0  0  0  0  0  0
   -3.1894    0.0407   -8.8550 H   0  0  0  0  0  0  0  0  0  0  0  0
   -0.9589   -0.0714   -9.3916 H   0  0  0  0  0  0  0  0  0  0  0  0
   -0.3626    1.1650   -8.3156 H   0  0  0  0  0  0  0  0  0  0  0  0
    1.0767   -0.2971   -7.1887 H   0  0  0  0  0  0  0  0  0  0  0  0
    0.6100   -1.3504   -8.5405 H   0  0  0  0  0  0  0  0  0  0  0  0
    0.4495   -1.9758   -6.8787 H   0  0  0  0  0  0  0  0  0  0  0  0
   -2.0394    0.4631   -0.9725 H   0  0  0  0  0  0  0  0  0  0  0  0
   -4.8533   -1.5428    2.3219 H   0  0  0  0  0  0  0  0  0  0  0  0
   -3.9883   -2.9824    4.0207 H   0  0  0  0  0  0  0  0  0  0  0  0
    0.6157   -3.1065    4.7073 H   0  0  0  0  0  0  0  0  0  0  0  0
    2.7992   -4.4879    5.7985 H   0  0  0  0  0  0  0  0  0  0  0  0
    2.9535   -4.6904    7.5383 H   0  0  0  0  0  0  0  0  0  0  0  0
    2.2595   -2.4785    8.0463 H   0  0  0  0  0  0  0  0  0  0  0  0
    1.8672   -2.1325    6.2884 H   0  0  0  0  0  0  0  0  0  0  0  0
    3.7238   -0.7592    7.9723 H   0  0  0  0  0  0  0  0  0  0  0  0
    3.4772   -0.5058    6.1881 H   0  0  0  0  0  0  0  0  0  0  0  0
    5.8867   -1.1536    5.8013 H   0  0  0  0  0  0  0  0  0  0  0  0
    5.7100    0.3446    6.8037 H   0  0  0  0  0  0  0  0  0  0  0  0
    8.0221   -1.3255    6.6366 H   0  0  0  0  0  0  0  0  0  0  0  0
    7.6824    0.0002    7.7752 H   0  0  0  0  0  0  0  0  0  0  0  0
    9.6094   -1.4975    8.4154 H   0  0  0  0  0  0  0  0  0  0  0  0
    8.5510   -2.8997    8.4209 H   0  0  0  0  0  0  0  0  0  0  0  0
    6.2255   -1.5531    9.9647 H   0  0  0  0  0  0  0  0  0  0  0  0
    7.0064   -1.8799   11.5239 H   0  0  0  0  0  0  0  0  0  0  0  0
    7.0155   -3.1091   10.2460 H   0  0  0  0  0  0  0  0  0  0  0  0
    0.2066   -5.8515    8.9270 H   0  0  0  0  0  0  0  0  0  0  0  0
   -3.3335   -7.0549    7.0297 H   0  0  0  0  0  0  0  0  0  0  0  0
    0.1963   -7.6118   11.0280 H   0  0  0  0  0  0  0  0  0  0  0  0
   -5.2243  -10.7985   11.3965 H   0  0  0  0  0  0  0  0  0  0  0  0
   -4.3256  -12.2632   10.8482 H   0  0  0  0  0  0  0  0  0  0  0  0
   -4.6625  -10.9267    9.6829 H   0  0  0  0  0  0  0  0  0  0  0  0
   -3.9634   -9.1777    8.9519 H   0  0  0  0  0  0  0  0  0  0  0  0
   -0.0823   -8.6293   13.9284 H   0  0  0  0  0  0  0  0  0  0  0  0
    0.9566   -8.7639   12.4822 H   0  0  0  0  0  0  0  0  0  0  0  0
    0.6372  -10.1944   13.5148 H   0  0  0  0  0  0  0  0  0  0  0  0
   -7.7725    1.2695   -1.6632 H   0  0  0  0  0  0  0  0  0  0  0  0
  1  2  1  0
  2  3  1  0
  3  4  2  0
  4  5  1  0
  5  6  2  0
  6  7  1  0
  7  8  2  0
  8  9  1  0
  9 10  1  0
  6 11  1  0
 11 12  1  0
 12 13  1  0
 13 14  2  0
 14 15  1  0
 15 16  1  0
 16 17  1  0
 17 18  1  0
 18 19  1  0
 19 20  1  0
 20 21  1  0
 21 22  1  0
 22 23  1  0
 23 24  1  0
 24 25  1  0
 14 26  1  0
 26 27  2  0
 27 28  1  0
 27 29  1  0
 29 30  2  0
 30 31  1  0
 31 32  2  0
 32 33  1  0
 33 34  2  0
 34 35  1  0
 35 36  1  0
 36 37  1  0
 37 38  1  0
 38 39  1  0
 39 40  1  0
 40 41  1  0
 41 42  1  0
 42 43  1  0
 43 44  1  0
 44 45  1  0
 45 46  1  0
 35 47  2  0
 47 48  1  0
 48 49  1  0
 48 50  2  0
 50 51  1  0
 51 52  2  0
 52 53  1  0
 53 54  2  0
 54 55  1  0
 55 56  1  0
 56 57  1  0
 55 58  2  0
 54 59  1  0
 59 60  1  0
 47 61  1  0
 32 62  1  0
 62 63  2  0
 63 64  1  0
 64 65  1  0
 65 66  2  0
 12 67  2  0
  8  3  1  0
 67  5  1  0
 28 13  1  0
 66 29  1  0
 61 33  1  0
 52 49  1  0
 58 51  1  0
 66 62  1  0
  1 68  1  0
  1 69  1  0
  1 70  1  0
  4 71  1  0
  7 72  1  0
 10 73  1  0
 10 74  1  0
 10 75  1  0
 11 76  1  0
 16 77  1  0
 16 78  1  0
 17 79  1  0
 17 80  1  0
 19 81  1  0
 19 82  1  0
 20 83  1  0
 20 84  1  0
 22 85  1  0
 22 86  1  0
 23 87  1  0
 23 88  1  0
 25 89  1  0
 25 90  1  0
 25 91  1  0
 26 92  1  0
 30 93  1  0
 31 94  1  0
 34 95  1  0
 37 96  1  0
 37 97  1  0
 38 98  1  0
 38 99  1  0
 40100  1  0
 40101  1  0
 41102  1  0
 41103  1  0
 43104  1  0
 43105  1  0
 44106  1  0
 44107  1  0
 46108  1  0
 46109  1  0
 46110  1  0
 49111  1  0
 50112  1  0
 53113  1  0
 57114  1  0
 57115  1  0
 57116  1  0
 58117  1  0
 60118  1  0
 60119  1  0
 60120  1  0
 67121  1  0
M  END
