
     RDKit          3D

121128  0  0  0  0  0  0  0  0999 V2000
   12.0003    3.1852   -3.9671 C   0  0  0  0  0  0  0  0  0  0  0  0
   11.0249    3.9026   -4.7165 O   0  0  0  0  0  0  0  0  0  1  0  0
    9.6728    3.6877   -4.4662 C   0  0  0  0  0  0  0  0  0  2  0  0
    9.2747    2.7832   -3.4922 C   0  0  0  0  0  0  0  0  0  3  0  0
    7.9232    2.5854   -3.2596 C   0  0  0  0  0  0  0  0  0  4  0  0
    6.9367    3.2530   -3.9598 C   0  0  0  0  0  0  0  0  0  5  0  0
    7.3554    4.1437   -4.9204 C   0  0  0  0  0  0  0  0  0  6  0  0
    8.7004    4.3617   -5.1735 C   0  0  0  0  0  0  0  0  0  7  0  0
    9.1462    5.2591   -6.1413 O   0  0  0  0  0  0  0  0  0  8  0  0
    8.2654    6.0136   -6.9337 C   0  0  0  0  0  0  0  0  0  9  0  0
    5.7201    2.8415   -3.5084 N   0  0  0  0  0  0  0  0  0 10  0  0
    5.8854    1.9230   -2.5325 C   0  0  0  0  0  0  0  0  0 11  0  0
    4.8940    1.2227   -1.8071 C   0  0  0  0  0  0  0  0  0 12  0  0
    4.3763    1.3936   -0.5173 C   0  0  0  0  0  0  0  0  0 13  0  0
    4.8865    2.4920    0.2390 O   0  0  0  0  0  0  0  0  0 14  0  0
    4.3583    2.7614    1.5504 C   0  0  0  0  0  0  0  0  0 15  0  0
    2.9421    3.1764    1.3633 C   0  0  0  0  0  0  0  0  0 16  0  0
    2.1189    3.4596    2.3471 O   0  0  0  0  0  0  0  0  0 17  0  0
    2.1052    4.3875    3.2732 C   0  0  0  0  0  0  0  0  0 18  0  0
    3.2083    4.3790    4.2585 C   0  0  0  0  0  0  0  0  0 19  0  0
    3.0936    5.4092    5.2026 O   0  0  0  0  0  0  0  0  0 20  0  0
    3.0591    6.6574    4.6575 C   0  0  0  0  0  0  0  0  0 21  0  0
    4.2553    7.0865    3.8693 C   0  0  0  0  0  0  0  0  0 22  0  0
    4.5659    6.3047    2.7853 O   0  0  0  0  0  0  0  0  0 23  0  0
    5.6854    6.8268    2.1232 C   0  0  0  0  0  0  0  0  0 24  0  0
    3.4573    0.5329   -0.0896 C   0  0  0  0  0  0  0  0  0 25  0  0
    3.0198   -0.4799   -0.8705 C   0  0  0  0  0  0  0  0  0 26  0  0
    4.0007   -0.2521   -2.4442 S   0  0  0  0  0  0  0  0  0 27  0  0
    2.0259   -1.5186   -0.7410 C   0  0  0  0  0  0  0  0  0 28  0  0
    1.5551   -2.1039   -1.8854 C   0  0  0  0  0  0  0  0  0 29  0  0
    0.6480   -3.1242   -1.7662 C   0  0  0  0  0  0  0  0  0 30  0  0
    0.2552   -3.5156   -0.5376 C   0  0  0  0  0  0  0  0  0 31  0  0
   -0.7562   -4.5737   -0.4433 C   0  0  0  0  0  0  0  0  0 32  0  0
   -1.6323   -5.0152   -1.4131 C   0  0  0  0  0  0  0  0  0 33  0  0
   -2.5032   -5.9710   -1.0852 C   0  0  0  0  0  0  0  0  0 34  0  0
   -3.4550   -6.5130   -1.9561 O   0  0  0  0  0  0  0  0  0 35  0  0
   -3.7399   -6.2749   -3.2576 C   0  0  0  0  0  0  0  0  0 36  0  0
   -2.7076   -6.6067   -4.2753 C   0  0  0  0  0  0  0  0  0 37  0  0
   -2.4223   -7.9731   -4.2229 O   0  0  0  0  0  0  0  0  0 38  0  0
   -1.5300   -8.2813   -5.2116 C   0  0  0  0  0  0  0  0  0 39  0  0
   -2.0486   -8.1943   -6.6307 C   0  0  0  0  0  0  0  0  0 40  0  0
   -3.0772   -9.0206   -6.9093 O   0  0  0  0  0  0  0  0  0 41  0  0
   -4.2884   -8.9343   -6.3514 C   0  0  0  0  0  0  0  0  0 42  0  0
   -5.1496   -7.7570   -6.6901 C   0  0  0  0  0  0  0  0  0 43  0  0
   -6.3494   -7.9249   -5.9635 O   0  0  0  0  0  0  0  0  0 44  0  0
   -7.2382   -6.8940   -6.1903 C   0  0  0  0  0  0  0  0  0 45  0  0
   -2.4553   -6.4481    0.2159 C   0  0  0  0  0  0  0  0  0 46  0  0
   -3.2164   -7.4845    0.8707 C   0  0  0  0  0  0  0  0  0 47  0  0
   -3.0702   -7.8835    2.1538 N   0  0  0  0  0  0  0  0  0 48  0  0
   -4.2015   -8.2918    0.3493 C   0  0  0  0  0  0  0  0  0 49  0  0
   -4.6506   -9.1758    1.3037 C   0  0  0  0  0  0  0  0  0 50  0  0
   -3.9099   -8.8897    2.4411 C   0  0  0  0  0  0  0  0  0 51  0  0
   -4.0837   -9.5945    3.6112 C   0  0  0  0  0  0  0  0  0 52  0  0
   -5.0043  -10.6134    3.6935 C   0  0  0  0  0  0  0  0  0 53  0  0
   -5.7527  -10.9008    2.5401 C   0  0  0  0  0  0  0  0  0 54  0  0
   -6.6650  -11.9376    2.6797 O   0  0  0  0  0  0  0  0  0 55  0  0
   -7.5185  -12.3982    1.6618 C   0  0  0  0  0  0  0  0  0 56  0  0
   -5.5804  -10.1971    1.3700 C   0  0  0  0  0  0  0  0  0 57  0  0
   -5.2016  -11.3454    4.8697 O   0  0  0  0  0  0  0  0  0 58  0  0
   -4.3942  -10.9705    5.9677 C   0  0  0  0  0  0  0  0  0 59  0  0
   -1.1733   -5.5374    0.9895 S   0  0  0  0  0  0  0  0  0 60  0  0
    0.7409   -2.9142    0.6395 C   0  0  0  0  0  0  0  0  0 61  0  0
    0.3533   -3.3054    1.8793 N   0  0  0  0  0  0  0  0  0 62  0  0
    1.3067   -2.1790    2.9952 S   0  0  0  0  0  0  0  0  0 63  0  0
    2.0657   -1.3699    1.6903 N   0  0  0  0  0  0  0  0  0 64  0  0
    1.6079   -1.9350    0.5334 C   0  0  0  0  0  0  0  0  0 65  0  0
    7.2460    1.7660   -2.3794 C   0  0  0  0  0  0  0  0  0 66  0  0
   11.8473    2.0822   -4.1329 H   0  0  0  0  0  0  0  0  0  0  0  0
   11.8658    3.3476   -2.8807 H   0  0  0  0  0  0  0  0  0  0  0  0
   13.0209    3.5001   -4.2328 H   0  0  0  0  0  0  0  0  0  0  0  0
    9.9854    2.2238   -2.9057 H   0  0  0  0  0  0  0  0  0  0  0  0
    6.6058    4.6892   -5.4936 H   0  0  0  0  0  0  0  0  0  0  0  0
    7.4697    6.5298   -6.3203 H   0  0  0  0  0  0  0  0  0  0  0  0
    8.8220    6.7139   -7.5599 H   0  0  0  0  0  0  0  0  0  0  0  0
    7.6853    5.3586   -7.6375 H   0  0  0  0  0  0  0  0  0  0  0  0
    4.8045    3.1903   -3.8670 H   0  0  0  0  0  0  0  0  0  0  0  0
    4.5319    1.9642    2.2642 H   0  0  0  0  0  0  0  0  0  0  0  0
    4.9621    3.6647    1.8601 H   0  0  0  0  0  0  0  0  0  0  0  0
    2.4457    2.6422    0.5105 H   0  0  0  0  0  0  0  0  0  0  0  0
    3.0962    4.2472    0.8211 H   0  0  0  0  0  0  0  0  0  0  0  0
    1.1382    4.2536    3.8735 H   0  0  0  0  0  0  0  0  0  0  0  0
    2.0132    5.3976    2.7498 H   0  0  0  0  0  0  0  0  0  0  0  0
    3.0596    3.4403    4.8828 H   0  0  0  0  0  0  0  0  0  0  0  0
    4.1850    4.2906    3.8339 H   0  0  0  0  0  0  0  0  0  0  0  0
    3.0159    7.3709    5.5376 H   0  0  0  0  0  0  0  0  0  0  0  0
    2.0971    6.8910    4.1188 H   0  0  0  0  0  0  0  0  0  0  0  0
    4.0479    8.1156    3.4493 H   0  0  0  0  0  0  0  0  0  0  0  0
    5.1476    7.2221    4.5054 H   0  0  0  0  0  0  0  0  0  0  0  0
    6.5166    6.8481    2.8458 H   0  0  0  0  0  0  0  0  0  0  0  0
    5.9516    6.1370    1.2895 H   0  0  0  0  0  0  0  0  0  0  0  0
    5.4533    7.8254    1.7617 H   0  0  0  0  0  0  0  0  0  0  0  0
    3.0355    0.5982    0.9582 H   0  0  0  0  0  0  0  0  0  0  0  0
    1.8687   -1.7962   -2.8903 H   0  0  0  0  0  0  0  0  0  0  0  0
    0.2429   -3.6214   -2.6533 H   0  0  0  0  0  0  0  0  0  0  0  0
   -1.5822   -4.5331   -2.4143 H   0  0  0  0  0  0  0  0  0  0  0  0
   -4.6400   -6.9287   -3.5191 H   0  0  0  0  0  0  0  0  0  0  0  0
   -4.1508   -5.2419   -3.4438 H   0  0  0  0  0  0  0  0  0  0  0  0
   -1.7181   -6.1359   -3.9600 H   0  0  0  0  0  0  0  0  0  0  0  0
   -2.9705   -6.3093   -5.2768 H   0  0  0  0  0  0  0  0  0  0  0  0
   -0.6369   -7.5865   -5.1935 H   0  0  0  0  0  0  0  0  0  0  0  0
   -1.0628   -9.2912   -5.0649 H   0  0  0  0  0  0  0  0  0  0  0  0
   -2.1701   -7.1253   -6.8840 H   0  0  0  0  0  0  0  0  0  0  0  0
   -1.1776   -8.5357   -7.2811 H   0  0  0  0  0  0  0  0  0  0  0  0
   -4.2483   -9.0389   -5.2294 H   0  0  0  0  0  0  0  0  0  0  0  0
   -4.8909   -9.8520   -6.6562 H   0  0  0  0  0  0  0  0  0  0  0  0
   -4.7507   -6.7646   -6.5161 H   0  0  0  0  0  0  0  0  0  0  0  0
   -5.4699   -7.8519   -7.7664 H   0  0  0  0  0  0  0  0  0  0  0  0
   -8.1668   -7.0887   -5.5842 H   0  0  0  0  0  0  0  0  0  0  0  0
   -7.5894   -6.8671   -7.2460 H   0  0  0  0  0  0  0  0  0  0  0  0
   -6.8320   -5.8894   -5.9357 H   0  0  0  0  0  0  0  0  0  0  0  0
   -2.3946   -7.4656    2.8402 H   0  0  0  0  0  0  0  0  0  0  0  0
   -4.5988   -8.2644   -0.6631 H   0  0  0  0  0  0  0  0  0  0  0  0
   -3.4895   -9.3481    4.4867 H   0  0  0  0  0  0  0  0  0  0  0  0
   -6.9566  -13.1252    1.0440 H   0  0  0  0  0  0  0  0  0  0  0  0
   -8.3832  -12.8934    2.1550 H   0  0  0  0  0  0  0  0  0  0  0  0
   -7.8754  -11.5853    1.0062 H   0  0  0  0  0  0  0  0  0  0  0  0
   -6.1690  -10.4360    0.4959 H   0  0  0  0  0  0  0  0  0  0  0  0
   -4.4264   -9.9002    6.2139 H   0  0  0  0  0  0  0  0  0  0  0  0
   -3.3360  -11.2719    5.7213 H   0  0  0  0  0  0  0  0  0  0  0  0
   -4.7199  -11.4987    6.9020 H   0  0  0  0  0  0  0  0  0  0  0  0
    7.7359    1.1158   -1.6951 H   0  0  0  0  0  0  0  0  0  0  0  0
  1  2  1  0
  2  3  1  0
  3  4  2  0
  4  5  1  0
  5  6  2  0
  6  7  1  0
  7  8  2  0
  8  9  1  0
  9 10  1  0
  6 11  1  0
 11 12  1  0
 12 13  1  0
 13 14  2  0
 14 15  1  0
 15 16  1  0
 16 17  1  0
 17 18  1  0
 18 19  1  0
 19 20  1  0
 20 21  1  0
 21 22  1  0
 22 23  1  0
 23 24  1  0
 24 25  1  0
 14 26  1  0
 26 27  2  0
 27 28  1  0
 27 29  1  0
 29 30  2  0
 30 31  1  0
 31 32  2  0
 32 33  1  0
 33 34  2  0
 34 35  1  0
 35 36  1  0
 36 37  1  0
 37 38  1  0
 38 39  1  0
 39 40  1  0
 40 41  1  0
 41 42  1  0
 42 43  1  0
 43 44  1  0
 44 45  1  0
 45 46  1  0
 35 47  2  0
 47 48  1  0
 48 49  1  0
 48 50  2  0
 50 51  1  0
 51 52  2  0
 52 53  1  0
 53 54  2  0
 54 55  1  0
 55 56  1  0
 56 57  1  0
 55 58  2  0
 54 59  1  0
 59 60  1  0
 47 61  1  0
 32 62  1  0
 62 63  2  0
 63 64  1  0
 64 65  1  0
 65 66  2  0
 12 67  2  0
  8  3  1  0
 67  5  1  0
 28 13  1  0
 66 29  1  0
 61 33  1  0
 52 49  1  0
 58 51  1  0
 66 62  1  0
  1 68  1  0
  1 69  1  0
  1 70  1  0
  4 71  1  0
  7 72  1  0
 10 73  1  0
 10 74  1  0
 10 75  1  0
 11 76  1  0
 16 77  1  0
 16 78  1  0
 17 79  1  0
 17 80  1  0
 19 81  1  0
 19 82  1  0
 20 83  1  0
 20 84  1  0
 22 85  1  0
 22 86  1  0
 23 87  1  0
 23 88  1  0
 25 89  1  0
 25 90  1  0
 25 91  1  0
 26 92  1  0
 30 93  1  0
 31 94  1  0
 34 95  1  0
 37 96  1  0
 37 97  1  0
 38 98  1  0
 38 99  1  0
 40100  1  0
 40101  1  0
 41102  1  0
 41103  1  0
 43104  1  0
 43105  1  0
 44106  1  0
 44107  1  0
 46108  1  0
 46109  1  0
 46110  1  0
 49111  1  0
 50112  1  0
 53113  1  0
 57114  1  0
 57115  1  0
 57116  1  0
 58117  1  0
 60118  1  0
 60119  1  0
 60120  1  0
 67121  1  0
M  END
