
     RDKit          3D

121128  0  0  0  0  0  0  0  0999 V2000
   -7.3990   -5.1462    8.4734 C   0  0  0  0  0  0  0  0  0  0  0  0
   -8.4162   -4.5557    7.6906 O   0  0  0  0  0  0  0  0  0  1  0  0
   -8.0502   -3.9423    6.5019 C   0  0  0  0  0  0  0  0  0  2  0  0
   -6.7292   -3.8939    6.0721 C   0  0  0  0  0  0  0  0  0  3  0  0
   -6.3448   -3.2922    4.8976 C   0  0  0  0  0  0  0  0  0  4  0  0
   -7.3542   -2.7152    4.1296 C   0  0  0  0  0  0  0  0  0  5  0  0
   -8.6745   -2.7604    4.5545 C   0  0  0  0  0  0  0  0  0  6  0  0
   -9.0504   -3.3662    5.7341 C   0  0  0  0  0  0  0  0  0  7  0  0
  -10.3762   -3.4037    6.1458 O   0  0  0  0  0  0  0  0  0  8  0  0
  -11.3349   -2.7913    5.2960 C   0  0  0  0  0  0  0  0  0  9  0  0
   -6.8140   -2.1706    3.0116 N   0  0  0  0  0  0  0  0  0 10  0  0
   -5.5143   -2.3855    3.0548 C   0  0  0  0  0  0  0  0  0 11  0  0
   -4.5648   -1.9755    2.0256 C   0  0  0  0  0  0  0  0  0 12  0  0
   -4.7643   -1.8284    0.6428 C   0  0  0  0  0  0  0  0  0 13  0  0
   -6.0229   -2.0987    0.1341 O   0  0  0  0  0  0  0  0  0 14  0  0
   -6.4848   -2.0067   -1.1389 C   0  0  0  0  0  0  0  0  0 15  0  0
   -6.4895   -0.6253   -1.7598 C   0  0  0  0  0  0  0  0  0 16  0  0
   -7.0033   -0.7143   -3.0471 O   0  0  0  0  0  0  0  0  0 17  0  0
   -7.0084    0.4996   -3.7295 C   0  0  0  0  0  0  0  0  0 18  0  0
   -7.7856    1.5485   -3.0128 C   0  0  0  0  0  0  0  0  0 19  0  0
   -9.0947    1.2486   -2.8074 O   0  0  0  0  0  0  0  0  0 20  0  0
   -9.7979    1.0906   -3.9865 C   0  0  0  0  0  0  0  0  0 21  0  0
  -11.2374    0.8069   -3.6568 C   0  0  0  0  0  0  0  0  0 22  0  0
  -12.0434    0.6445   -4.7378 O   0  0  0  0  0  0  0  0  0 23  0  0
  -11.6696   -0.3923   -5.5535 C   0  0  0  0  0  0  0  0  0 24  0  0
   -3.6635   -1.4313   -0.0319 C   0  0  0  0  0  0  0  0  0 25  0  0
   -2.5214   -1.2101    0.6058 C   0  0  0  0  0  0  0  0  0 26  0  0
   -2.8424   -1.5383    2.2731 S   0  0  0  0  0  0  0  0  0 27  0  0
   -1.1882   -0.7410    0.1985 C   0  0  0  0  0  0  0  0  0 28  0  0
   -0.2710   -0.3172    1.1387 C   0  0  0  0  0  0  0  0  0 29  0  0
    0.9762    0.0760    0.7593 C   0  0  0  0  0  0  0  0  0 30  0  0
    1.3273    0.0499   -0.5671 C   0  0  0  0  0  0  0  0  0 31  0  0
    2.6447    0.5147   -0.9317 C   0  0  0  0  0  0  0  0  0 32  0  0
    3.6137    1.2271   -0.2771 C   0  0  0  0  0  0  0  0  0 33  0  0
    4.7349    1.5528   -0.8770 C   0  0  0  0  0  0  0  0  0 34  0  0
    5.7804    2.2962   -0.2582 O   0  0  0  0  0  0  0  0  0 35  0  0
    5.7035    2.7614    1.0558 C   0  0  0  0  0  0  0  0  0 36  0  0
    6.9726    3.5248    1.4345 C   0  0  0  0  0  0  0  0  0 37  0  0
    7.2122    4.5885    0.6389 O   0  0  0  0  0  0  0  0  0 38  0  0
    6.2499    5.5305    0.6250 C   0  0  0  0  0  0  0  0  0 39  0  0
    5.9766    6.2271    1.9238 C   0  0  0  0  0  0  0  0  0 40  0  0
    5.5744    5.4612    2.9696 O   0  0  0  0  0  0  0  0  0 41  0  0
    5.3992    6.2066    4.1127 C   0  0  0  0  0  0  0  0  0 42  0  0
    4.3713    7.2670    3.9552 C   0  0  0  0  0  0  0  0  0 43  0  0
    4.1921    8.0268    5.1326 O   0  0  0  0  0  0  0  0  0 44  0  0
    3.7795    7.2580    6.1849 C   0  0  0  0  0  0  0  0  0 45  0  0
    4.9651    1.1753   -2.2031 C   0  0  0  0  0  0  0  0  0 46  0  0
    6.0286    1.3522   -3.1008 C   0  0  0  0  0  0  0  0  0 47  0  0
    6.0755    0.8788   -4.3755 N   0  0  0  0  0  0  0  0  0 48  0  0
    7.2081    2.0135   -2.8661 C   0  0  0  0  0  0  0  0  0 49  0  0
    7.9734    1.9383   -4.0078 C   0  0  0  0  0  0  0  0  0 50  0  0
    7.2449    1.2245   -4.9370 C   0  0  0  0  0  0  0  0  0 51  0  0
    7.7762    0.9874   -6.1814 C   0  0  0  0  0  0  0  0  0 52  0  0
    9.0260    1.4366   -6.5540 C   0  0  0  0  0  0  0  0  0 53  0  0
    9.7647    2.1513   -5.6373 C   0  0  0  0  0  0  0  0  0 54  0  0
   11.0224    2.6090   -5.9965 O   0  0  0  0  0  0  0  0  0 55  0  0
   11.8908    3.3417   -5.1784 C   0  0  0  0  0  0  0  0  0 56  0  0
    9.2193    2.3894   -4.3734 C   0  0  0  0  0  0  0  0  0 57  0  0
    9.5592    1.1959   -7.8048 O   0  0  0  0  0  0  0  0  0 58  0  0
    8.9227    0.4837   -8.8232 C   0  0  0  0  0  0  0  0  0 59  0  0
    3.3880    0.2533   -2.6283 S   0  0  0  0  0  0  0  0  0 60  0  0
    0.3950   -0.3771   -1.4800 C   0  0  0  0  0  0  0  0  0 61  0  0
    0.7261   -0.4213   -2.8891 N   0  0  0  0  0  0  0  0  0 62  0  0
   -0.8123   -1.0415   -3.6259 S   0  0  0  0  0  0  0  0  0 63  0  0
   -1.6456   -1.1646   -2.1528 N   0  0  0  0  0  0  0  0  0 64  0  0
   -0.7983   -0.7555   -1.1540 C   0  0  0  0  0  0  0  0  0 65  0  0
   -5.1880   -3.0720    4.2004 C   0  0  0  0  0  0  0  0  0 66  0  0
   -6.7162   -4.3825    8.8814 H   0  0  0  0  0  0  0  0  0  0  0  0
   -7.8335   -5.6664    9.3598 H   0  0  0  0  0  0  0  0  0  0  0  0
   -6.8080   -5.8761    7.8557 H   0  0  0  0  0  0  0  0  0  0  0  0
   -5.9400   -4.3445    6.6743 H   0  0  0  0  0  0  0  0  0  0  0  0
   -9.4595   -2.3155    3.9647 H   0  0  0  0  0  0  0  0  0  0  0  0
  -11.2876   -3.2039    4.2759 H   0  0  0  0  0  0  0  0  0  0  0  0
  -11.0473   -1.7012    5.2758 H   0  0  0  0  0  0  0  0  0  0  0  0
  -12.3485   -2.8949    5.7687 H   0  0  0  0  0  0  0  0  0  0  0  0
   -7.3842   -1.6851    2.2897 H   0  0  0  0  0  0  0  0  0  0  0  0
   -5.9653   -2.7235   -1.8395 H   0  0  0  0  0  0  0  0  0  0  0  0
   -7.5593   -2.3435   -1.1663 H   0  0  0  0  0  0  0  0  0  0  0  0
   -5.5631   -0.0761   -1.7221 H   0  0  0  0  0  0  0  0  0  0  0  0
   -7.2313    0.0184   -1.1800 H   0  0  0  0  0  0  0  0  0  0  0  0
   -7.3924    0.3259   -4.7535 H   0  0  0  0  0  0  0  0  0  0  0  0
   -5.9450    0.8220   -3.8721 H   0  0  0  0  0  0  0  0  0  0  0  0
   -7.2569    1.7952   -2.0485 H   0  0  0  0  0  0  0  0  0  0  0  0
   -7.7201    2.4916   -3.6605 H   0  0  0  0  0  0  0  0  0  0  0  0
   -9.7698    2.0142   -4.5975 H   0  0  0  0  0  0  0  0  0  0  0  0
   -9.3745    0.1954   -4.5096 H   0  0  0  0  0  0  0  0  0  0  0  0
  -11.6157    1.6402   -3.0202 H   0  0  0  0  0  0  0  0  0  0  0  0
  -11.2823   -0.0993   -2.9894 H   0  0  0  0  0  0  0  0  0  0  0  0
  -11.6554   -1.3592   -5.0003 H   0  0  0  0  0  0  0  0  0  0  0  0
  -10.6649   -0.2168   -5.9557 H   0  0  0  0  0  0  0  0  0  0  0  0
  -12.3752   -0.4949   -6.4199 H   0  0  0  0  0  0  0  0  0  0  0  0
   -3.7261   -1.3000   -1.1525 H   0  0  0  0  0  0  0  0  0  0  0  0
   -0.5266   -0.2921    2.1758 H   0  0  0  0  0  0  0  0  0  0  0  0
    1.7034    0.4139    1.4944 H   0  0  0  0  0  0  0  0  0  0  0  0
    3.3983    1.5144    0.7941 H   0  0  0  0  0  0  0  0  0  0  0  0
    4.8505    3.4147    1.2948 H   0  0  0  0  0  0  0  0  0  0  0  0
    5.5801    1.8743    1.7310 H   0  0  0  0  0  0  0  0  0  0  0  0
    7.7894    2.7458    1.2712 H   0  0  0  0  0  0  0  0  0  0  0  0
    7.0035    3.7143    2.5239 H   0  0  0  0  0  0  0  0  0  0  0  0
    5.2966    5.0559    0.2445 H   0  0  0  0  0  0  0  0  0  0  0  0
    6.4883    6.3588   -0.1035 H   0  0  0  0  0  0  0  0  0  0  0  0
    5.1565    6.9722    1.7049 H   0  0  0  0  0  0  0  0  0  0  0  0
    6.9043    6.7664    2.2163 H   0  0  0  0  0  0  0  0  0  0  0  0
    6.3942    6.6124    4.3919 H   0  0  0  0  0  0  0  0  0  0  0  0
    5.0759    5.4839    4.8992 H   0  0  0  0  0  0  0  0  0  0  0  0
    4.6021    8.0419    3.1848 H   0  0  0  0  0  0  0  0  0  0  0  0
    3.3794    6.8350    3.7461 H   0  0  0  0  0  0  0  0  0  0  0  0
    2.8161    6.7598    5.9176 H   0  0  0  0  0  0  0  0  0  0  0  0
    3.5898    7.9482    7.0664 H   0  0  0  0  0  0  0  0  0  0  0  0
    4.5720    6.5768    6.4984 H   0  0  0  0  0  0  0  0  0  0  0  0
    5.3299    0.3370   -4.8439 H   0  0  0  0  0  0  0  0  0  0  0  0
    7.4500    2.4920   -1.9383 H   0  0  0  0  0  0  0  0  0  0  0  0
    7.1538    0.4151   -6.8852 H   0  0  0  0  0  0  0  0  0  0  0  0
   11.7518    2.9831   -4.1322 H   0  0  0  0  0  0  0  0  0  0  0  0
   12.9589    3.2134   -5.5029 H   0  0  0  0  0  0  0  0  0  0  0  0
   11.6895    4.4225   -5.2389 H   0  0  0  0  0  0  0  0  0  0  0  0
    9.7802    2.9536   -3.6335 H   0  0  0  0  0  0  0  0  0  0  0  0
    9.7398   -0.0046   -9.4258 H   0  0  0  0  0  0  0  0  0  0  0  0
    8.2816   -0.3302   -8.4033 H   0  0  0  0  0  0  0  0  0  0  0  0
    8.3594    1.1734   -9.4869 H   0  0  0  0  0  0  0  0  0  0  0  0
   -4.2100   -3.3988    4.5297 H   0  0  0  0  0  0  0  0  0  0  0  0
  1  2  1  0
  2  3  1  0
  3  4  2  0
  4  5  1  0
  5  6  2  0
  6  7  1  0
  7  8  2  0
  8  9  1  0
  9 10  1  0
  6 11  1  0
 11 12  1  0
 12 13  1  0
 13 14  2  0
 14 15  1  0
 15 16  1  0
 16 17  1  0
 17 18  1  0
 18 19  1  0
 19 20  1  0
 20 21  1  0
 21 22  1  0
 22 23  1  0
 23 24  1  0
 24 25  1  0
 14 26  1  0
 26 27  2  0
 27 28  1  0
 27 29  1  0
 29 30  2  0
 30 31  1  0
 31 32  2  0
 32 33  1  0
 33 34  2  0
 34 35  1  0
 35 36  1  0
 36 37  1  0
 37 38  1  0
 38 39  1  0
 39 40  1  0
 40 41  1  0
 41 42  1  0
 42 43  1  0
 43 44  1  0
 44 45  1  0
 45 46  1  0
 35 47  2  0
 47 48  1  0
 48 49  1  0
 48 50  2  0
 50 51  1  0
 51 52  2  0
 52 53  1  0
 53 54  2  0
 54 55  1  0
 55 56  1  0
 56 57  1  0
 55 58  2  0
 54 59  1  0
 59 60  1  0
 47 61  1  0
 32 62  1  0
 62 63  2  0
 63 64  1  0
 64 65  1  0
 65 66  2  0
 12 67  2  0
  8  3  1  0
 67  5  1  0
 28 13  1  0
 66 29  1  0
 61 33  1  0
 52 49  1  0
 58 51  1  0
 66 62  1  0
  1 68  1  0
  1 69  1  0
  1 70  1  0
  4 71  1  0
  7 72  1  0
 10 73  1  0
 10 74  1  0
 10 75  1  0
 11 76  1  0
 16 77  1  0
 16 78  1  0
 17 79  1  0
 17 80  1  0
 19 81  1  0
 19 82  1  0
 20 83  1  0
 20 84  1  0
 22 85  1  0
 22 86  1  0
 23 87  1  0
 23 88  1  0
 25 89  1  0
 25 90  1  0
 25 91  1  0
 26 92  1  0
 30 93  1  0
 31 94  1  0
 34 95  1  0
 37 96  1  0
 37 97  1  0
 38 98  1  0
 38 99  1  0
 40100  1  0
 40101  1  0
 41102  1  0
 41103  1  0
 43104  1  0
 43105  1  0
 44106  1  0
 44107  1  0
 46108  1  0
 46109  1  0
 46110  1  0
 49111  1  0
 50112  1  0
 53113  1  0
 57114  1  0
 57115  1  0
 57116  1  0
 58117  1  0
 60118  1  0
 60119  1  0
 60120  1  0
 67121  1  0
M  END
