
     RDKit          3D

121128  0  0  0  0  0  0  0  0999 V2000
    9.6568   -0.8329   -7.0153 C   0  0  0  0  0  0  0  0  0  0  0  0
   10.3575   -0.2442   -5.9351 O   0  0  0  0  0  0  0  0  0  1  0  0
    9.7241   -0.0295   -4.7189 C   0  0  0  0  0  0  0  0  0  2  0  0
    8.3999   -0.4072   -4.6081 C   0  0  0  0  0  0  0  0  0  3  0  0
    7.7849   -0.1850   -3.3813 C   0  0  0  0  0  0  0  0  0  4  0  0
    8.4887    0.3839   -2.3518 C   0  0  0  0  0  0  0  0  0  5  0  0
    9.8198    0.7657   -2.4576 C   0  0  0  0  0  0  0  0  0  6  0  0
   10.4322    0.5428   -3.6849 C   0  0  0  0  0  0  0  0  0  7  0  0
   11.7808    0.9082   -3.8593 O   0  0  0  0  0  0  0  0  0  8  0  0
   12.4231    1.4904   -2.7419 C   0  0  0  0  0  0  0  0  0  9  0  0
    7.6457    0.4670   -1.3061 N   0  0  0  0  0  0  0  0  0 10  0  0
    6.4438   -0.0060   -1.5793 C   0  0  0  0  0  0  0  0  0 11  0  0
    5.2384   -0.1427   -0.7595 C   0  0  0  0  0  0  0  0  0 12  0  0
    4.9556    0.0680    0.5649 C   0  0  0  0  0  0  0  0  0 13  0  0
    5.9785    0.4965    1.4594 O   0  0  0  0  0  0  0  0  0 14  0  0
    5.7610    0.6693    2.8173 C   0  0  0  0  0  0  0  0  0 15  0  0
    6.9002    1.2031    3.5721 C   0  0  0  0  0  0  0  0  0 16  0  0
    8.1130    0.5224    3.5665 O   0  0  0  0  0  0  0  0  0 17  0  0
    8.6692    0.4852    2.3318 C   0  0  0  0  0  0  0  0  0 18  0  0
   10.0198   -0.0440    2.1171 C   0  0  0  0  0  0  0  0  0 19  0  0
   11.1048    0.4767    2.7149 O   0  0  0  0  0  0  0  0  0 20  0  0
   11.4174    1.7694    2.7796 C   0  0  0  0  0  0  0  0  0 21  0  0
   10.5680    2.7359    3.5287 C   0  0  0  0  0  0  0  0  0 22  0  0
   11.0442    4.0336    3.4822 O   0  0  0  0  0  0  0  0  0 23  0  0
   12.2731    4.1723    4.0628 C   0  0  0  0  0  0  0  0  0 24  0  0
    3.6814   -0.1451    0.9560 C   0  0  0  0  0  0  0  0  0 25  0  0
    2.7697   -0.5407    0.0708 C   0  0  0  0  0  0  0  0  0 26  0  0
    3.6676   -0.6592   -1.4741 S   0  0  0  0  0  0  0  0  0 27  0  0
    1.3633   -0.8339    0.1419 C   0  0  0  0  0  0  0  0  0 28  0  0
    0.6223   -1.0416   -1.0160 C   0  0  0  0  0  0  0  0  0 29  0  0
   -0.7228   -1.3514   -0.9721 C   0  0  0  0  0  0  0  0  0 30  0  0
   -1.3348   -1.4535    0.2348 C   0  0  0  0  0  0  0  0  0 31  0  0
   -2.7274   -1.8883    0.3456 C   0  0  0  0  0  0  0  0  0 32  0  0
   -3.5050   -2.5300   -0.6042 C   0  0  0  0  0  0  0  0  0 33  0  0
   -4.7331   -2.9135   -0.2302 C   0  0  0  0  0  0  0  0  0 34  0  0
   -5.6065   -3.5984   -1.1413 O   0  0  0  0  0  0  0  0  0 35  0  0
   -5.2513   -3.8800   -2.4600 C   0  0  0  0  0  0  0  0  0 36  0  0
   -6.3145   -4.6641   -3.1466 C   0  0  0  0  0  0  0  0  0 37  0  0
   -6.6247   -5.8791   -2.6570 O   0  0  0  0  0  0  0  0  0 38  0  0
   -7.0661   -6.0797   -1.4086 C   0  0  0  0  0  0  0  0  0 39  0  0
   -7.3056   -7.5512   -1.1470 C   0  0  0  0  0  0  0  0  0 40  0  0
   -8.2406   -8.0814   -1.9626 O   0  0  0  0  0  0  0  0  0 41  0  0
   -8.0465   -8.0193   -3.3125 C   0  0  0  0  0  0  0  0  0 42  0  0
   -9.1823   -8.7918   -3.9927 C   0  0  0  0  0  0  0  0  0 43  0  0
   -9.1717  -10.1075   -3.5842 O   0  0  0  0  0  0  0  0  0 44  0  0
   -8.0174  -10.7765   -3.8889 C   0  0  0  0  0  0  0  0  0 45  0  0
   -5.1433   -2.6556    1.0288 C   0  0  0  0  0  0  0  0  0 46  0  0
   -6.3708   -2.9109    1.7553 C   0  0  0  0  0  0  0  0  0 47  0  0
   -7.4780   -3.5209    1.3411 N   0  0  0  0  0  0  0  0  0 48  0  0
   -6.6351   -2.5493    3.0822 C   0  0  0  0  0  0  0  0  0 49  0  0
   -7.9037   -2.9567    3.4321 C   0  0  0  0  0  0  0  0  0 50  0  0
   -8.4157   -3.5701    2.3118 C   0  0  0  0  0  0  0  0  0 51  0  0
   -9.7040   -4.1234    2.2987 C   0  0  0  0  0  0  0  0  0 52  0  0
  -10.4730   -4.0364    3.4700 C   0  0  0  0  0  0  0  0  0 53  0  0
   -9.9811   -3.4234    4.6071 C   0  0  0  0  0  0  0  0  0 54  0  0
  -10.7767   -3.3591    5.7387 O   0  0  0  0  0  0  0  0  0 55  0  0
  -10.3276   -2.7308    6.9218 C   0  0  0  0  0  0  0  0  0 56  0  0
   -8.6945   -2.8919    4.5630 C   0  0  0  0  0  0  0  0  0 57  0  0
  -11.7518   -4.5589    3.5409 O   0  0  0  0  0  0  0  0  0 58  0  0
  -12.3336   -5.2114    2.4476 C   0  0  0  0  0  0  0  0  0 59  0  0
   -3.7705   -1.8353    1.7744 S   0  0  0  0  0  0  0  0  0 60  0  0
   -0.5816   -1.2395    1.3707 C   0  0  0  0  0  0  0  0  0 61  0  0
   -1.1701   -1.3201    2.6972 N   0  0  0  0  0  0  0  0  0 62  0  0
    0.0289   -0.9986    3.8095 S   0  0  0  0  0  0  0  0  0 63  0  0
    1.3394   -0.7466    2.5825 N   0  0  0  0  0  0  0  0  0 64  0  0
    0.6724   -0.9515    1.3386 C   0  0  0  0  0  0  0  0  0 65  0  0
    6.5164   -0.4294   -2.9125 C   0  0  0  0  0  0  0  0  0 66  0  0
   10.3372   -0.8776   -7.9008 H   0  0  0  0  0  0  0  0  0  0  0  0
    8.7431   -0.2612   -7.2918 H   0  0  0  0  0  0  0  0  0  0  0  0
    9.3654   -1.8806   -6.7924 H   0  0  0  0  0  0  0  0  0  0  0  0
    7.8633   -0.8478   -5.4136 H   0  0  0  0  0  0  0  0  0  0  0  0
   10.3403    1.2108   -1.6280 H   0  0  0  0  0  0  0  0  0  0  0  0
   12.4152    0.8707   -1.8399 H   0  0  0  0  0  0  0  0  0  0  0  0
   13.4596    1.7487   -3.0578 H   0  0  0  0  0  0  0  0  0  0  0  0
   11.9236    2.4747   -2.4974 H   0  0  0  0  0  0  0  0  0  0  0  0
    7.9208    0.8658   -0.3988 H   0  0  0  0  0  0  0  0  0  0  0  0
    5.4507   -0.3312    3.2700 H   0  0  0  0  0  0  0  0  0  0  0  0
    4.8230    1.2970    2.9540 H   0  0  0  0  0  0  0  0  0  0  0  0
    7.0483    2.2855    3.2893 H   0  0  0  0  0  0  0  0  0  0  0  0
    6.6391    1.2921    4.6792 H   0  0  0  0  0  0  0  0  0  0  0  0
    8.5377    1.4313    1.7477 H   0  0  0  0  0  0  0  0  0  0  0  0
    7.9939   -0.2773    1.7575 H   0  0  0  0  0  0  0  0  0  0  0  0
   10.1894   -0.0477    0.9704 H   0  0  0  0  0  0  0  0  0  0  0  0
    9.9763   -1.1714    2.3341 H   0  0  0  0  0  0  0  0  0  0  0  0
   11.6962    2.1920    1.7555 H   0  0  0  0  0  0  0  0  0  0  0  0
   12.4364    1.8092    3.3116 H   0  0  0  0  0  0  0  0  0  0  0  0
   10.5949    2.4018    4.6127 H   0  0  0  0  0  0  0  0  0  0  0  0
    9.5026    2.7708    3.2569 H   0  0  0  0  0  0  0  0  0  0  0  0
   12.2129    3.8314    5.1351 H   0  0  0  0  0  0  0  0  0  0  0  0
   12.5760    5.2593    4.1290 H   0  0  0  0  0  0  0  0  0  0  0  0
   13.0362    3.5910    3.5552 H   0  0  0  0  0  0  0  0  0  0  0  0
    3.3836    0.0131    2.0317 H   0  0  0  0  0  0  0  0  0  0  0  0
    1.1124   -0.9589   -1.9996 H   0  0  0  0  0  0  0  0  0  0  0  0
   -1.3154   -1.5176   -1.8612 H   0  0  0  0  0  0  0  0  0  0  0  0
   -3.0719   -2.6910   -1.6168 H   0  0  0  0  0  0  0  0  0  0  0  0
   -4.2407   -4.3394   -2.5482 H   0  0  0  0  0  0  0  0  0  0  0  0
   -5.1434   -2.8767   -2.9687 H   0  0  0  0  0  0  0  0  0  0  0  0
   -5.9577   -4.8216   -4.2126 H   0  0  0  0  0  0  0  0  0  0  0  0
   -7.2127   -3.9961   -3.3002 H   0  0  0  0  0  0  0  0  0  0  0  0
   -8.0697   -5.5965   -1.2009 H   0  0  0  0  0  0  0  0  0  0  0  0
   -6.4034   -5.6726   -0.6021 H   0  0  0  0  0  0  0  0  0  0  0  0
   -7.5082   -7.7315   -0.0582 H   0  0  0  0  0  0  0  0  0  0  0  0
   -6.3195   -8.0495   -1.3990 H   0  0  0  0  0  0  0  0  0  0  0  0
   -8.1907   -6.9531   -3.6991 H   0  0  0  0  0  0  0  0  0  0  0  0
   -7.0889   -8.4131   -3.6835 H   0  0  0  0  0  0  0  0  0  0  0  0
   -9.0971   -8.7036   -5.1003 H   0  0  0  0  0  0  0  0  0  0  0  0
  -10.1585   -8.3690   -3.6848 H   0  0  0  0  0  0  0  0  0  0  0  0
   -8.1661  -11.8406   -3.5272 H   0  0  0  0  0  0  0  0  0  0  0  0
   -7.0950  -10.3896   -3.3856 H   0  0  0  0  0  0  0  0  0  0  0  0
   -7.8910  -10.7476   -4.9835 H   0  0  0  0  0  0  0  0  0  0  0  0
   -7.6284   -3.9061    0.4041 H   0  0  0  0  0  0  0  0  0  0  0  0
   -5.9753   -2.0252    3.7699 H   0  0  0  0  0  0  0  0  0  0  0  0
  -10.0888   -4.6000    1.4068 H   0  0  0  0  0  0  0  0  0  0  0  0
   -9.8843   -1.7199    6.6893 H   0  0  0  0  0  0  0  0  0  0  0  0
   -9.5333   -3.2830    7.4446 H   0  0  0  0  0  0  0  0  0  0  0  0
  -11.1937   -2.4759    7.5884 H   0  0  0  0  0  0  0  0  0  0  0  0
   -8.2680   -2.4053    5.4319 H   0  0  0  0  0  0  0  0  0  0  0  0
  -11.6024   -5.8655    1.9116 H   0  0  0  0  0  0  0  0  0  0  0  0
  -12.8073   -4.5510    1.7204 H   0  0  0  0  0  0  0  0  0  0  0  0
  -13.1383   -5.8939    2.8239 H   0  0  0  0  0  0  0  0  0  0  0  0
    5.7476   -0.8754   -3.5233 H   0  0  0  0  0  0  0  0  0  0  0  0
  1  2  1  0
  2  3  1  0
  3  4  2  0
  4  5  1  0
  5  6  2  0
  6  7  1  0
  7  8  2  0
  8  9  1  0
  9 10  1  0
  6 11  1  0
 11 12  1  0
 12 13  1  0
 13 14  2  0
 14 15  1  0
 15 16  1  0
 16 17  1  0
 17 18  1  0
 18 19  1  0
 19 20  1  0
 20 21  1  0
 21 22  1  0
 22 23  1  0
 23 24  1  0
 24 25  1  0
 14 26  1  0
 26 27  2  0
 27 28  1  0
 27 29  1  0
 29 30  2  0
 30 31  1  0
 31 32  2  0
 32 33  1  0
 33 34  2  0
 34 35  1  0
 35 36  1  0
 36 37  1  0
 37 38  1  0
 38 39  1  0
 39 40  1  0
 40 41  1  0
 41 42  1  0
 42 43  1  0
 43 44  1  0
 44 45  1  0
 45 46  1  0
 35 47  2  0
 47 48  1  0
 48 49  1  0
 48 50  2  0
 50 51  1  0
 51 52  2  0
 52 53  1  0
 53 54  2  0
 54 55  1  0
 55 56  1  0
 56 57  1  0
 55 58  2  0
 54 59  1  0
 59 60  1  0
 47 61  1  0
 32 62  1  0
 62 63  2  0
 63 64  1  0
 64 65  1  0
 65 66  2  0
 12 67  2  0
  8  3  1  0
 67  5  1  0
 28 13  1  0
 66 29  1  0
 61 33  1  0
 52 49  1  0
 58 51  1  0
 66 62  1  0
  1 68  1  0
  1 69  1  0
  1 70  1  0
  4 71  1  0
  7 72  1  0
 10 73  1  0
 10 74  1  0
 10 75  1  0
 11 76  1  0
 16 77  1  0
 16 78  1  0
 17 79  1  0
 17 80  1  0
 19 81  1  0
 19 82  1  0
 20 83  1  0
 20 84  1  0
 22 85  1  0
 22 86  1  0
 23 87  1  0
 23 88  1  0
 25 89  1  0
 25 90  1  0
 25 91  1  0
 26 92  1  0
 30 93  1  0
 31 94  1  0
 34 95  1  0
 37 96  1  0
 37 97  1  0
 38 98  1  0
 38 99  1  0
 40100  1  0
 40101  1  0
 41102  1  0
 41103  1  0
 43104  1  0
 43105  1  0
 44106  1  0
 44107  1  0
 46108  1  0
 46109  1  0
 46110  1  0
 49111  1  0
 50112  1  0
 53113  1  0
 57114  1  0
 57115  1  0
 57116  1  0
 58117  1  0
 60118  1  0
 60119  1  0
 60120  1  0
 67121  1  0
M  END
