
     RDKit          3D

121128  0  0  0  0  0  0  0  0999 V2000
   -8.3447   -1.6541   -8.3326 C   0  0  0  0  0  0  0  0  0  0  0  0
   -9.3359   -1.7729   -7.3262 O   0  0  0  0  0  0  0  0  0  1  0  0
   -8.9023   -1.6888   -6.0030 C   0  0  0  0  0  0  0  0  0  2  0  0
   -7.5840   -1.5393   -5.7245 C   0  0  0  0  0  0  0  0  0  3  0  0
   -7.1861   -1.4479   -4.4294 C   0  0  0  0  0  0  0  0  0  4  0  0
   -8.0884   -1.5030   -3.3954 C   0  0  0  0  0  0  0  0  0  5  0  0
   -9.4118   -1.6555   -3.7157 C   0  0  0  0  0  0  0  0  0  6  0  0
   -9.9129   -1.7576   -4.9842 C   0  0  0  0  0  0  0  0  0  7  0  0
  -11.1093   -1.9034   -5.3378 O   0  0  0  0  0  0  0  0  0  8  0  0
  -12.4269   -2.0546   -5.3591 C   0  0  0  0  0  0  0  0  0  9  0  0
   -7.4896   -1.3745   -2.2034 N   0  0  0  0  0  0  0  0  0 10  0  0
   -6.1776   -1.2389   -2.4271 C   0  0  0  0  0  0  0  0  0 11  0  0
   -5.0801   -0.9896   -1.4914 C   0  0  0  0  0  0  0  0  0 12  0  0
   -4.1933    0.1391   -1.4954 C   0  0  0  0  0  0  0  0  0 13  0  0
   -4.3874    1.0508   -2.4365 O   0  0  0  0  0  0  0  0  0 14  0  0
   -4.0869    2.1562   -3.0363 C   0  0  0  0  0  0  0  0  0 15  0  0
   -2.7288    2.2832   -3.7258 C   0  0  0  0  0  0  0  0  0 16  0  0
   -2.6513    1.2982   -4.6902 O   0  0  0  0  0  0  0  0  0 17  0  0
   -1.5787    1.3902   -5.5233 C   0  0  0  0  0  0  0  0  0 18  0  0
   -1.6578    2.6241   -6.4126 C   0  0  0  0  0  0  0  0  0 19  0  0
   -0.6154    2.7658   -7.2811 O   0  0  0  0  0  0  0  0  0 20  0  0
    0.6390    2.9113   -6.7917 C   0  0  0  0  0  0  0  0  0 21  0  0
    0.9126    4.1190   -5.9489 C   0  0  0  0  0  0  0  0  0 22  0  0
    0.1254    4.1403   -4.8068 O   0  0  0  0  0  0  0  0  0 23  0  0
    0.4148    5.2941   -4.0827 C   0  0  0  0  0  0  0  0  0 24  0  0
   -3.2799    0.0923   -0.5001 C   0  0  0  0  0  0  0  0  0 25  0  0
   -3.2425   -0.9051    0.3783 C   0  0  0  0  0  0  0  0  0 26  0  0
   -4.5675   -1.9505   -0.1493 S   0  0  0  0  0  0  0  0  0 27  0  0
   -2.5432   -1.2386    1.5953 C   0  0  0  0  0  0  0  0  0 28  0  0
   -3.2343   -1.9619    2.5467 C   0  0  0  0  0  0  0  0  0 29  0  0
   -2.7457   -2.4056    3.7452 C   0  0  0  0  0  0  0  0  0 30  0  0
   -1.3569   -2.0606    3.9982 C   0  0  0  0  0  0  0  0  0 31  0  0
   -0.8547   -2.4600    5.2697 C   0  0  0  0  0  0  0  0  0 32  0  0
    0.3477   -2.4094    5.9065 C   0  0  0  0  0  0  0  0  0 33  0  0
    0.4690   -2.8792    7.1480 C   0  0  0  0  0  0  0  0  0 34  0  0
    1.6304   -2.8993    7.9118 O   0  0  0  0  0  0  0  0  0 35  0  0
    2.9236   -2.5647    7.6554 C   0  0  0  0  0  0  0  0  0 36  0  0
    3.4539   -3.5437    6.5510 C   0  0  0  0  0  0  0  0  0 37  0  0
    3.2897   -4.7726    7.1255 O   0  0  0  0  0  0  0  0  0 38  0  0
    3.6139   -5.8405    6.4050 C   0  0  0  0  0  0  0  0  0 39  0  0
    5.0985   -5.9404    6.0758 C   0  0  0  0  0  0  0  0  0 40  0  0
    5.8582   -5.9951    7.2157 O   0  0  0  0  0  0  0  0  0 41  0  0
    7.2040   -6.1845    7.0695 C   0  0  0  0  0  0  0  0  0 42  0  0
    7.6447   -7.4966    6.5242 C   0  0  0  0  0  0  0  0  0 43  0  0
    7.1804   -7.8155    5.2811 O   0  0  0  0  0  0  0  0  0 44  0  0
    7.6392   -9.0718    4.9172 C   0  0  0  0  0  0  0  0  0 45  0  0
   -0.6890   -3.4015    7.7327 C   0  0  0  0  0  0  0  0  0 46  0  0
   -0.9262   -3.8353    9.0887 C   0  0  0  0  0  0  0  0  0 47  0  0
   -1.4895   -4.9376    9.5760 N   0  0  0  0  0  0  0  0  0 48  0  0
   -0.7023   -3.0307   10.1865 C   0  0  0  0  0  0  0  0  0 49  0  0
   -1.1364   -3.6535   11.3401 C   0  0  0  0  0  0  0  0  0 50  0  0
   -1.6347   -4.8798   10.9186 C   0  0  0  0  0  0  0  0  0 51  0  0
   -2.1253   -5.7294   11.8838 C   0  0  0  0  0  0  0  0  0 52  0  0
   -2.1630   -5.4475   13.2306 C   0  0  0  0  0  0  0  0  0 53  0  0
   -1.6566   -4.1917   13.5913 C   0  0  0  0  0  0  0  0  0 54  0  0
   -1.6483   -3.7765   14.9215 O   0  0  0  0  0  0  0  0  0 55  0  0
   -1.1524   -2.4918   15.2519 C   0  0  0  0  0  0  0  0  0 56  0  0
   -1.1455   -3.2944   12.6759 C   0  0  0  0  0  0  0  0  0 57  0  0
   -2.6400   -6.2992   14.1974 O   0  0  0  0  0  0  0  0  0 58  0  0
   -3.0851   -7.5892   13.7729 C   0  0  0  0  0  0  0  0  0 59  0  0
   -1.9152   -3.2414    6.5473 S   0  0  0  0  0  0  0  0  0 60  0  0
   -0.7256   -1.3500    3.0246 C   0  0  0  0  0  0  0  0  0 61  0  0
    0.6863   -1.0233    3.2198 N   0  0  0  0  0  0  0  0  0 62  0  0
    1.2118   -0.1960    1.8577 S   0  0  0  0  0  0  0  0  0 63  0  0
   -0.4283   -0.2663    1.0041 N   0  0  0  0  0  0  0  0  0 64  0  0
   -1.2293   -0.9523    1.9078 C   0  0  0  0  0  0  0  0  0 65  0  0
   -5.9489   -1.2816   -3.7995 C   0  0  0  0  0  0  0  0  0 66  0  0
   -8.7334   -1.7801   -9.3607 H   0  0  0  0  0  0  0  0  0  0  0  0
   -7.9209   -0.6134   -8.1644 H   0  0  0  0  0  0  0  0  0  0  0  0
   -7.5095   -2.3471   -8.1769 H   0  0  0  0  0  0  0  0  0  0  0  0
   -6.8118   -1.4951   -6.4873 H   0  0  0  0  0  0  0  0  0  0  0  0
  -10.1796   -1.7017   -2.9132 H   0  0  0  0  0  0  0  0  0  0  0  0
  -13.0328   -1.1716   -5.6135 H   0  0  0  0  0  0  0  0  0  0  0  0
  -12.6484   -2.8501   -6.1979 H   0  0  0  0  0  0  0  0  0  0  0  0
  -12.9246   -2.5657   -4.4811 H   0  0  0  0  0  0  0  0  0  0  0  0
   -7.8927   -1.3744   -1.2221 H   0  0  0  0  0  0  0  0  0  0  0  0
   -4.1240    3.1144   -2.3973 H   0  0  0  0  0  0  0  0  0  0  0  0
   -4.8340    2.4169   -3.8705 H   0  0  0  0  0  0  0  0  0  0  0  0
   -1.9174    2.0708   -2.9962 H   0  0  0  0  0  0  0  0  0  0  0  0
   -2.6718    3.2860   -4.1383 H   0  0  0  0  0  0  0  0  0  0  0  0
   -1.4555    0.5063   -6.1665 H   0  0  0  0  0  0  0  0  0  0  0  0
   -0.6146    1.5080   -4.9494 H   0  0  0  0  0  0  0  0  0  0  0  0
   -1.7816    3.5554   -5.8368 H   0  0  0  0  0  0  0  0  0  0  0  0
   -2.5826    2.4909   -7.0572 H   0  0  0  0  0  0  0  0  0  0  0  0
    1.3407    2.9226   -7.6632 H   0  0  0  0  0  0  0  0  0  0  0  0
    0.9226    1.9942   -6.1982 H   0  0  0  0  0  0  0  0  0  0  0  0
    0.7184    5.0573   -6.5669 H   0  0  0  0  0  0  0  0  0  0  0  0
    1.9764    4.0804   -5.6544 H   0  0  0  0  0  0  0  0  0  0  0  0
    1.5054    5.2406   -3.8382 H   0  0  0  0  0  0  0  0  0  0  0  0
   -0.1560    5.3385   -3.1268 H   0  0  0  0  0  0  0  0  0  0  0  0
    0.2019    6.2409   -4.6582 H   0  0  0  0  0  0  0  0  0  0  0  0
   -2.5264    0.9401   -0.4278 H   0  0  0  0  0  0  0  0  0  0  0  0
   -4.3083   -2.2247    2.3808 H   0  0  0  0  0  0  0  0  0  0  0  0
   -3.3074   -2.9536    4.4477 H   0  0  0  0  0  0  0  0  0  0  0  0
    1.2135   -1.9435    5.3606 H   0  0  0  0  0  0  0  0  0  0  0  0
    3.5850   -2.8077    8.5260 H   0  0  0  0  0  0  0  0  0  0  0  0
    3.1463   -1.5542    7.2740 H   0  0  0  0  0  0  0  0  0  0  0  0
    2.8917   -3.4826    5.6341 H   0  0  0  0  0  0  0  0  0  0  0  0
    4.5027   -3.2383    6.3687 H   0  0  0  0  0  0  0  0  0  0  0  0
    3.3046   -6.7803    6.9194 H   0  0  0  0  0  0  0  0  0  0  0  0
    3.0460   -5.8028    5.4169 H   0  0  0  0  0  0  0  0  0  0  0  0
    5.4299   -5.2036    5.3316 H   0  0  0  0  0  0  0  0  0  0  0  0
    5.1734   -6.9470    5.5579 H   0  0  0  0  0  0  0  0  0  0  0  0
    7.6876   -6.0545    8.0789 H   0  0  0  0  0  0  0  0  0  0  0  0
    7.6815   -5.3735    6.4532 H   0  0  0  0  0  0  0  0  0  0  0  0
    7.3426   -8.2761    7.2660 H   0  0  0  0  0  0  0  0  0  0  0  0
    8.7681   -7.4655    6.4528 H   0  0  0  0  0  0  0  0  0  0  0  0
    7.2562   -9.7899    5.7053 H   0  0  0  0  0  0  0  0  0  0  0  0
    7.0942   -9.3140    3.9677 H   0  0  0  0  0  0  0  0  0  0  0  0
    8.7172   -9.0757    4.8045 H   0  0  0  0  0  0  0  0  0  0  0  0
   -1.8029   -5.7840    9.0400 H   0  0  0  0  0  0  0  0  0  0  0  0
   -0.2663   -2.0474   10.1951 H   0  0  0  0  0  0  0  0  0  0  0  0
   -2.5205   -6.7056   11.5453 H   0  0  0  0  0  0  0  0  0  0  0  0
   -1.1916   -2.3311   16.3440 H   0  0  0  0  0  0  0  0  0  0  0  0
   -0.1126   -2.4030   14.8810 H   0  0  0  0  0  0  0  0  0  0  0  0
   -1.8059   -1.6922   14.7966 H   0  0  0  0  0  0  0  0  0  0  0  0
   -0.7732   -2.3288   12.9665 H   0  0  0  0  0  0  0  0  0  0  0  0
   -3.2870   -8.2359   14.6374 H   0  0  0  0  0  0  0  0  0  0  0  0
   -2.2684   -8.0001   13.1012 H   0  0  0  0  0  0  0  0  0  0  0  0
   -3.9954   -7.5329   13.1704 H   0  0  0  0  0  0  0  0  0  0  0  0
   -5.0175   -1.2041   -4.3044 H   0  0  0  0  0  0  0  0  0  0  0  0
  1  2  1  0
  2  3  1  0
  3  4  2  0
  4  5  1  0
  5  6  2  0
  6  7  1  0
  7  8  2  0
  8  9  1  0
  9 10  1  0
  6 11  1  0
 11 12  1  0
 12 13  1  0
 13 14  2  0
 14 15  1  0
 15 16  1  0
 16 17  1  0
 17 18  1  0
 18 19  1  0
 19 20  1  0
 20 21  1  0
 21 22  1  0
 22 23  1  0
 23 24  1  0
 24 25  1  0
 14 26  1  0
 26 27  2  0
 27 28  1  0
 27 29  1  0
 29 30  2  0
 30 31  1  0
 31 32  2  0
 32 33  1  0
 33 34  2  0
 34 35  1  0
 35 36  1  0
 36 37  1  0
 37 38  1  0
 38 39  1  0
 39 40  1  0
 40 41  1  0
 41 42  1  0
 42 43  1  0
 43 44  1  0
 44 45  1  0
 45 46  1  0
 35 47  2  0
 47 48  1  0
 48 49  1  0
 48 50  2  0
 50 51  1  0
 51 52  2  0
 52 53  1  0
 53 54  2  0
 54 55  1  0
 55 56  1  0
 56 57  1  0
 55 58  2  0
 54 59  1  0
 59 60  1  0
 47 61  1  0
 32 62  1  0
 62 63  2  0
 63 64  1  0
 64 65  1  0
 65 66  2  0
 12 67  2  0
  8  3  1  0
 67  5  1  0
 28 13  1  0
 66 29  1  0
 61 33  1  0
 52 49  1  0
 58 51  1  0
 66 62  1  0
  1 68  1  0
  1 69  1  0
  1 70  1  0
  4 71  1  0
  7 72  1  0
 10 73  1  0
 10 74  1  0
 10 75  1  0
 11 76  1  0
 16 77  1  0
 16 78  1  0
 17 79  1  0
 17 80  1  0
 19 81  1  0
 19 82  1  0
 20 83  1  0
 20 84  1  0
 22 85  1  0
 22 86  1  0
 23 87  1  0
 23 88  1  0
 25 89  1  0
 25 90  1  0
 25 91  1  0
 26 92  1  0
 30 93  1  0
 31 94  1  0
 34 95  1  0
 37 96  1  0
 37 97  1  0
 38 98  1  0
 38 99  1  0
 40100  1  0
 40101  1  0
 41102  1  0
 41103  1  0
 43104  1  0
 43105  1  0
 44106  1  0
 44107  1  0
 46108  1  0
 46109  1  0
 46110  1  0
 49111  1  0
 50112  1  0
 53113  1  0
 57114  1  0
 57115  1  0
 57116  1  0
 58117  1  0
 60118  1  0
 60119  1  0
 60120  1  0
 67121  1  0
M  END
