
     RDKit          3D

121128  0  0  0  0  0  0  0  0999 V2000
   -9.8560   -5.4667   -6.5911 C   0  0  0  0  0  0  0  0  0  0  0  0
  -10.2625   -4.1266   -6.4792 O   0  0  0  0  0  0  0  0  0  1  0  0
   -9.4891   -3.1526   -5.8640 C   0  0  0  0  0  0  0  0  0  2  0  0
   -8.2577   -3.6032   -5.3604 C   0  0  0  0  0  0  0  0  0  3  0  0
   -7.4426   -2.6433   -4.7281 C   0  0  0  0  0  0  0  0  0  4  0  0
   -7.8296   -1.3296   -4.6051 C   0  0  0  0  0  0  0  0  0  5  0  0
   -9.0411   -0.9761   -5.1211 C   0  0  0  0  0  0  0  0  0  6  0  0
   -9.9113   -1.8538   -5.7632 C   0  0  0  0  0  0  0  0  0  7  0  0
  -11.1211   -1.4827   -6.2785 O   0  0  0  0  0  0  0  0  0  8  0  0
  -11.6630   -0.1874   -6.2416 C   0  0  0  0  0  0  0  0  0  9  0  0
   -6.8727   -0.6415   -3.9753 N   0  0  0  0  0  0  0  0  0 10  0  0
   -5.8654   -1.4991   -3.6942 C   0  0  0  0  0  0  0  0  0 11  0  0
   -4.6797   -1.0340   -2.9550 C   0  0  0  0  0  0  0  0  0 12  0  0
   -3.3419   -1.2495   -3.2081 C   0  0  0  0  0  0  0  0  0 13  0  0
   -2.9614   -1.9578   -4.3709 O   0  0  0  0  0  0  0  0  0 14  0  0
   -1.6383   -2.1792   -4.7266 C   0  0  0  0  0  0  0  0  0 15  0  0
   -1.6355   -2.9754   -6.0214 C   0  0  0  0  0  0  0  0  0 16  0  0
   -2.2937   -2.3597   -7.0263 O   0  0  0  0  0  0  0  0  0 17  0  0
   -2.0232   -1.1406   -7.4682 C   0  0  0  0  0  0  0  0  0 18  0  0
   -0.6602   -0.8487   -8.0688 C   0  0  0  0  0  0  0  0  0 19  0  0
   -0.3898   -1.6149   -9.1536 O   0  0  0  0  0  0  0  0  0 20  0  0
    0.8044   -1.3345   -9.7534 C   0  0  0  0  0  0  0  0  0 21  0  0
    0.8705    0.0477  -10.3323 C   0  0  0  0  0  0  0  0  0 22  0  0
    2.1121    0.2547  -10.9521 O   0  0  0  0  0  0  0  0  0 23  0  0
    2.0918    1.5472  -11.4880 C   0  0  0  0  0  0  0  0  0 24  0  0
   -2.4782   -0.7525   -2.3047 C   0  0  0  0  0  0  0  0  0 25  0  0
   -2.9324   -0.0915   -1.2360 C   0  0  0  0  0  0  0  0  0 26  0  0
   -4.7098   -0.1048   -1.4076 S   0  0  0  0  0  0  0  0  0 27  0  0
   -2.2990    0.5705   -0.1172 C   0  0  0  0  0  0  0  0  0 28  0  0
   -3.0399    1.3957    0.6893 C   0  0  0  0  0  0  0  0  0 29  0  0
   -2.4505    2.0032    1.7708 C   0  0  0  0  0  0  0  0  0 30  0  0
   -1.1229    1.7921    2.0586 C   0  0  0  0  0  0  0  0  0 31  0  0
   -0.4660    2.5475    3.1360 C   0  0  0  0  0  0  0  0  0 32  0  0
    0.6044    2.3105    3.9172 C   0  0  0  0  0  0  0  0  0 33  0  0
    0.9304    3.2386    4.8585 C   0  0  0  0  0  0  0  0  0 34  0  0
    2.0056    3.1413    5.7675 O   0  0  0  0  0  0  0  0  0 35  0  0
    2.9181    2.1425    5.8952 C   0  0  0  0  0  0  0  0  0 36  0  0
    3.9402    1.8503    4.8766 C   0  0  0  0  0  0  0  0  0 37  0  0
    4.8464    2.8380    4.5915 O   0  0  0  0  0  0  0  0  0 38  0  0
    5.6075    3.3080    5.6057 C   0  0  0  0  0  0  0  0  0 39  0  0
    6.4631    2.3207    6.3611 C   0  0  0  0  0  0  0  0  0 40  0  0
    5.7862    1.3250    6.9776 O   0  0  0  0  0  0  0  0  0 41  0  0
    6.4444    0.4231    7.7392 C   0  0  0  0  0  0  0  0  0 42  0  0
    7.4576   -0.4553    7.0973 C   0  0  0  0  0  0  0  0  0 43  0  0
    6.9821   -1.2696    6.0855 O   0  0  0  0  0  0  0  0  0 44  0  0
    8.0815   -2.0401    5.6432 C   0  0  0  0  0  0  0  0  0 45  0  0
    0.1347    4.3428    4.9257 C   0  0  0  0  0  0  0  0  0 46  0  0
    0.2544    5.6002    5.6464 C   0  0  0  0  0  0  0  0  0 47  0  0
    1.3936    6.0285    6.1831 N   0  0  0  0  0  0  0  0  0 48  0  0
   -0.7073    6.5498    5.8687 C   0  0  0  0  0  0  0  0  0 49  0  0
   -0.1342    7.6011    6.5652 C   0  0  0  0  0  0  0  0  0 50  0  0
    1.1991    7.2330    6.7439 C   0  0  0  0  0  0  0  0  0 51  0  0
    2.0246    8.1476    7.3831 C   0  0  0  0  0  0  0  0  0 52  0  0
    1.5049    9.3364    7.7969 C   0  0  0  0  0  0  0  0  0 53  0  0
    0.1809    9.7012    7.6228 C   0  0  0  0  0  0  0  0  0 54  0  0
   -0.2126   10.9229    8.0952 O   0  0  0  0  0  0  0  0  0 55  0  0
   -1.4924   11.4769    8.1189 C   0  0  0  0  0  0  0  0  0 56  0  0
   -0.6358    8.8092    6.9984 C   0  0  0  0  0  0  0  0  0 57  0  0
    2.3656   10.2277    8.4319 O   0  0  0  0  0  0  0  0  0 58  0  0
    3.7156    9.9025    8.6255 C   0  0  0  0  0  0  0  0  0 59  0  0
   -1.1110    4.1547    3.7038 S   0  0  0  0  0  0  0  0  0 60  0  0
   -0.4216    0.9560    1.2275 C   0  0  0  0  0  0  0  0  0 61  0  0
    0.9627    0.6989    1.4555 N   0  0  0  0  0  0  0  0  0 62  0  0
    1.4866   -0.3545    0.2239 S   0  0  0  0  0  0  0  0  0 63  0  0
   -0.1323   -0.4489   -0.5878 N   0  0  0  0  0  0  0  0  0 64  0  0
   -0.9469    0.3706    0.1982 C   0  0  0  0  0  0  0  0  0 65  0  0
   -6.1826   -2.7432   -4.1439 C   0  0  0  0  0  0  0  0  0 66  0  0
  -10.5671   -6.0450   -7.2543 H   0  0  0  0  0  0  0  0  0  0  0  0
   -9.9152   -5.9894   -5.5856 H   0  0  0  0  0  0  0  0  0  0  0  0
   -8.8159   -5.5725   -6.9370 H   0  0  0  0  0  0  0  0  0  0  0  0
   -7.9296   -4.6237   -5.4323 H   0  0  0  0  0  0  0  0  0  0  0  0
   -9.4230    0.0594   -5.0627 H   0  0  0  0  0  0  0  0  0  0  0  0
  -11.2107    0.5069   -7.0036 H   0  0  0  0  0  0  0  0  0  0  0  0
  -12.7427   -0.2323   -6.4674 H   0  0  0  0  0  0  0  0  0  0  0  0
  -11.5300    0.3043   -5.2604 H   0  0  0  0  0  0  0  0  0  0  0  0
   -6.9618    0.3780   -3.7742 H   0  0  0  0  0  0  0  0  0  0  0  0
   -1.0319   -1.2558   -4.8227 H   0  0  0  0  0  0  0  0  0  0  0  0
   -1.1555   -2.8088   -3.9595 H   0  0  0  0  0  0  0  0  0  0  0  0
   -2.1463   -3.9346   -5.8059 H   0  0  0  0  0  0  0  0  0  0  0  0
   -0.5817   -3.2448   -6.2385 H   0  0  0  0  0  0  0  0  0  0  0  0
   -2.2829   -0.3043   -6.7462 H   0  0  0  0  0  0  0  0  0  0  0  0
   -2.7460   -0.9168   -8.3239 H   0  0  0  0  0  0  0  0  0  0  0  0
   -0.6365    0.2424   -8.3734 H   0  0  0  0  0  0  0  0  0  0  0  0
    0.0830   -0.9352   -7.2749 H   0  0  0  0  0  0  0  0  0  0  0  0
    1.6573   -1.4144   -9.0307 H   0  0  0  0  0  0  0  0  0  0  0  0
    1.0724   -2.0909  -10.5445 H   0  0  0  0  0  0  0  0  0  0  0  0
    0.7547    0.7957   -9.5033 H   0  0  0  0  0  0  0  0  0  0  0  0
    0.0664    0.2385  -11.0418 H   0  0  0  0  0  0  0  0  0  0  0  0
    1.2404    1.5903  -12.2307 H   0  0  0  0  0  0  0  0  0  0  0  0
    1.7791    2.2248  -10.6707 H   0  0  0  0  0  0  0  0  0  0  0  0
    3.0438    1.8693  -11.9090 H   0  0  0  0  0  0  0  0  0  0  0  0
   -1.3701   -0.8979   -2.4566 H   0  0  0  0  0  0  0  0  0  0  0  0
   -4.0850    1.6097    0.5223 H   0  0  0  0  0  0  0  0  0  0  0  0
   -2.9826    2.6679    2.4516 H   0  0  0  0  0  0  0  0  0  0  0  0
    1.1854    1.3680    3.8025 H   0  0  0  0  0  0  0  0  0  0  0  0
    2.2784    1.1667    5.9321 H   0  0  0  0  0  0  0  0  0  0  0  0
    3.3279    2.1125    6.9519 H   0  0  0  0  0  0  0  0  0  0  0  0
    3.4381    1.6173    3.8968 H   0  0  0  0  0  0  0  0  0  0  0  0
    4.4290    0.8800    5.1461 H   0  0  0  0  0  0  0  0  0  0  0  0
    6.3365    4.0422    5.1596 H   0  0  0  0  0  0  0  0  0  0  0  0
    5.0255    3.9567    6.3320 H   0  0  0  0  0  0  0  0  0  0  0  0
    7.2172    1.8610    5.6819 H   0  0  0  0  0  0  0  0  0  0  0  0
    7.0757    2.8891    7.1206 H   0  0  0  0  0  0  0  0  0  0  0  0
    5.7112   -0.2545    8.2778 H   0  0  0  0  0  0  0  0  0  0  0  0
    6.9707    0.9376    8.5991 H   0  0  0  0  0  0  0  0  0  0  0  0
    8.3399    0.1140    6.7450 H   0  0  0  0  0  0  0  0  0  0  0  0
    7.8459   -1.1542    7.8991 H   0  0  0  0  0  0  0  0  0  0  0  0
    8.3994   -2.6020    6.5648 H   0  0  0  0  0  0  0  0  0  0  0  0
    7.7776   -2.7765    4.8883 H   0  0  0  0  0  0  0  0  0  0  0  0
    8.8705   -1.3408    5.3222 H   0  0  0  0  0  0  0  0  0  0  0  0
    2.3213    5.5255    6.1880 H   0  0  0  0  0  0  0  0  0  0  0  0
   -1.7513    6.5120    5.5554 H   0  0  0  0  0  0  0  0  0  0  0  0
    3.0504    7.8639    7.5188 H   0  0  0  0  0  0  0  0  0  0  0  0
   -1.8205   11.9132    7.1585 H   0  0  0  0  0  0  0  0  0  0  0  0
   -1.5835   12.2200    8.9560 H   0  0  0  0  0  0  0  0  0  0  0  0
   -2.1958   10.6230    8.3493 H   0  0  0  0  0  0  0  0  0  0  0  0
   -1.6700    9.0818    6.8594 H   0  0  0  0  0  0  0  0  0  0  0  0
    4.2339    9.5471    7.7159 H   0  0  0  0  0  0  0  0  0  0  0  0
    4.1970   10.8187    9.0445 H   0  0  0  0  0  0  0  0  0  0  0  0
    3.7970    9.1194    9.4286 H   0  0  0  0  0  0  0  0  0  0  0  0
   -5.5622   -3.6274   -4.0596 H   0  0  0  0  0  0  0  0  0  0  0  0
  1  2  1  0
  2  3  1  0
  3  4  2  0
  4  5  1  0
  5  6  2  0
  6  7  1  0
  7  8  2  0
  8  9  1  0
  9 10  1  0
  6 11  1  0
 11 12  1  0
 12 13  1  0
 13 14  2  0
 14 15  1  0
 15 16  1  0
 16 17  1  0
 17 18  1  0
 18 19  1  0
 19 20  1  0
 20 21  1  0
 21 22  1  0
 22 23  1  0
 23 24  1  0
 24 25  1  0
 14 26  1  0
 26 27  2  0
 27 28  1  0
 27 29  1  0
 29 30  2  0
 30 31  1  0
 31 32  2  0
 32 33  1  0
 33 34  2  0
 34 35  1  0
 35 36  1  0
 36 37  1  0
 37 38  1  0
 38 39  1  0
 39 40  1  0
 40 41  1  0
 41 42  1  0
 42 43  1  0
 43 44  1  0
 44 45  1  0
 45 46  1  0
 35 47  2  0
 47 48  1  0
 48 49  1  0
 48 50  2  0
 50 51  1  0
 51 52  2  0
 52 53  1  0
 53 54  2  0
 54 55  1  0
 55 56  1  0
 56 57  1  0
 55 58  2  0
 54 59  1  0
 59 60  1  0
 47 61  1  0
 32 62  1  0
 62 63  2  0
 63 64  1  0
 64 65  1  0
 65 66  2  0
 12 67  2  0
  8  3  1  0
 67  5  1  0
 28 13  1  0
 66 29  1  0
 61 33  1  0
 52 49  1  0
 58 51  1  0
 66 62  1  0
  1 68  1  0
  1 69  1  0
  1 70  1  0
  4 71  1  0
  7 72  1  0
 10 73  1  0
 10 74  1  0
 10 75  1  0
 11 76  1  0
 16 77  1  0
 16 78  1  0
 17 79  1  0
 17 80  1  0
 19 81  1  0
 19 82  1  0
 20 83  1  0
 20 84  1  0
 22 85  1  0
 22 86  1  0
 23 87  1  0
 23 88  1  0
 25 89  1  0
 25 90  1  0
 25 91  1  0
 26 92  1  0
 30 93  1  0
 31 94  1  0
 34 95  1  0
 37 96  1  0
 37 97  1  0
 38 98  1  0
 38 99  1  0
 40100  1  0
 40101  1  0
 41102  1  0
 41103  1  0
 43104  1  0
 43105  1  0
 44106  1  0
 44107  1  0
 46108  1  0
 46109  1  0
 46110  1  0
 49111  1  0
 50112  1  0
 53113  1  0
 57114  1  0
 57115  1  0
 57116  1  0
 58117  1  0
 60118  1  0
 60119  1  0
 60120  1  0
 67121  1  0
M  END
