
     RDKit          3D

121128  0  0  0  0  0  0  0  0999 V2000
    8.2497   -9.6612    0.2747 C   0  0  0  0  0  0  0  0  0  0  0  0
    9.3000   -8.7517    0.6121 O   0  0  0  0  0  0  0  0  0  1  0  0
    8.9551   -7.3883    0.5619 C   0  0  0  0  0  0  0  0  0  2  0  0
    7.6755   -7.0303    0.2126 C   0  0  0  0  0  0  0  0  0  3  0  0
    7.3243   -5.6868    0.1569 C   0  0  0  0  0  0  0  0  0  4  0  0
    8.2497   -4.6818    0.4498 C   0  0  0  0  0  0  0  0  0  5  0  0
    9.5140   -5.0706    0.7946 C   0  0  0  0  0  0  0  0  0  6  0  0
    9.8729   -6.3940    0.8537 C   0  0  0  0  0  0  0  0  0  7  0  0
   11.1703   -6.8124    1.2084 O   0  0  0  0  0  0  0  0  0  8  0  0
   12.0767   -5.7516    1.5134 C   0  0  0  0  0  0  0  0  0  9  0  0
    7.5883   -3.5027    0.3064 N   0  0  0  0  0  0  0  0  0 10  0  0
    6.3231   -3.7444   -0.0534 C   0  0  0  0  0  0  0  0  0 11  0  0
    5.3132   -2.7038   -0.3095 C   0  0  0  0  0  0  0  0  0 12  0  0
    5.4143   -1.3590   -0.3385 C   0  0  0  0  0  0  0  0  0 13  0  0
    6.6841   -0.7407   -0.1338 O   0  0  0  0  0  0  0  0  0 14  0  0
    6.9067    0.6292   -0.1715 C   0  0  0  0  0  0  0  0  0 15  0  0
    8.4137    0.8069    0.1026 C   0  0  0  0  0  0  0  0  0 16  0  0
    8.7308    0.3199    1.3397 O   0  0  0  0  0  0  0  0  0 17  0  0
    8.1467    0.9309    2.4166 C   0  0  0  0  0  0  0  0  0 18  0  0
    8.5655    2.3725    2.5368 C   0  0  0  0  0  0  0  0  0 19  0  0
    8.2623    3.1806    1.4758 O   0  0  0  0  0  0  0  0  0 20  0  0
    8.7190    4.4661    1.6458 C   0  0  0  0  0  0  0  0  0 21  0  0
    8.1353    5.1931    2.8216 C   0  0  0  0  0  0  0  0  0 22  0  0
    8.7280    6.4706    2.8085 O   0  0  0  0  0  0  0  0  0 23  0  0
    8.2963    7.2905    3.8269 C   0  0  0  0  0  0  0  0  0 24  0  0
    4.2946   -0.6367   -0.5637 C   0  0  0  0  0  0  0  0  0 25  0  0
    3.1393   -1.3029   -0.7505 C   0  0  0  0  0  0  0  0  0 26  0  0
    3.6066   -3.0819   -0.6079 S   0  0  0  0  0  0  0  0  0 27  0  0
    1.7486   -0.9492   -1.0208 C   0  0  0  0  0  0  0  0  0 28  0  0
    1.3224   -0.6832   -2.3001 C   0  0  0  0  0  0  0  0  0 29  0  0
    0.0027   -0.4173   -2.5735 C   0  0  0  0  0  0  0  0  0 30  0  0
   -0.8975   -0.4208   -1.5423 C   0  0  0  0  0  0  0  0  0 31  0  0
   -2.2836   -0.0929   -1.8458 C   0  0  0  0  0  0  0  0  0 32  0  0
   -3.4537   -0.3058   -1.1823 C   0  0  0  0  0  0  0  0  0 33  0  0
   -4.5959    0.0861   -1.7699 C   0  0  0  0  0  0  0  0  0 34  0  0
   -5.8696   -0.0955   -1.1548 O   0  0  0  0  0  0  0  0  0 35  0  0
   -6.0194   -0.7005    0.0806 C   0  0  0  0  0  0  0  0  0 36  0  0
   -7.4465   -0.7855    0.5473 C   0  0  0  0  0  0  0  0  0 37  0  0
   -8.1980   -1.5100   -0.3774 O   0  0  0  0  0  0  0  0  0 38  0  0
   -9.5094   -1.6516    0.0188 C   0  0  0  0  0  0  0  0  0 39  0  0
  -10.2742   -2.3773   -1.0570 C   0  0  0  0  0  0  0  0  0 40  0  0
   -9.7383   -3.6055   -1.2950 O   0  0  0  0  0  0  0  0  0 41  0  0
   -9.6967   -4.4643   -0.2306 C   0  0  0  0  0  0  0  0  0 42  0  0
   -9.0949   -5.7633   -0.7547 C   0  0  0  0  0  0  0  0  0 43  0  0
   -9.8756   -6.2604   -1.7635 O   0  0  0  0  0  0  0  0  0 44  0  0
  -11.1451   -6.5741   -1.3571 C   0  0  0  0  0  0  0  0  0 45  0  0
   -4.5165    0.6731   -2.9909 C   0  0  0  0  0  0  0  0  0 46  0  0
   -5.5734    1.1912   -3.8667 C   0  0  0  0  0  0  0  0  0 47  0  0
   -5.4277    1.8597   -5.0155 N   0  0  0  0  0  0  0  0  0 48  0  0
   -6.9091    1.0183   -3.5762 C   0  0  0  0  0  0  0  0  0 49  0  0
   -7.6054    1.6125   -4.6012 C   0  0  0  0  0  0  0  0  0 50  0  0
   -6.6797    2.1312   -5.4861 C   0  0  0  0  0  0  0  0  0 51  0  0
   -7.1880    2.7832   -6.5876 C   0  0  0  0  0  0  0  0  0 52  0  0
   -8.5389    2.9318   -6.8296 C   0  0  0  0  0  0  0  0  0 53  0  0
   -9.4527    2.4048   -5.9312 C   0  0  0  0  0  0  0  0  0 54  0  0
  -10.8105    2.5576   -6.1872 O   0  0  0  0  0  0  0  0  0 55  0  0
  -11.8201    2.0596   -5.3441 C   0  0  0  0  0  0  0  0  0 56  0  0
   -8.9807    1.7567   -4.8365 C   0  0  0  0  0  0  0  0  0 57  0  0
   -9.0402    3.5953   -7.9422 O   0  0  0  0  0  0  0  0  0 58  0  0
   -8.2630    4.1971   -8.9439 C   0  0  0  0  0  0  0  0  0 59  0  0
   -2.7744    0.7028   -3.3908 S   0  0  0  0  0  0  0  0  0 60  0  0
   -0.4447   -0.6891   -0.2715 C   0  0  0  0  0  0  0  0  0 61  0  0
   -1.3395   -0.6947    0.8377 N   0  0  0  0  0  0  0  0  0 62  0  0
   -0.4457   -1.0433    2.2146 S   0  0  0  0  0  0  0  0  0 63  0  0
    1.1604   -1.1916    1.3294 N   0  0  0  0  0  0  0  0  0 64  0  0
    0.7847   -0.9383    0.0044 C   0  0  0  0  0  0  0  0  0 65  0  0
    6.1122   -5.1035   -0.1593 C   0  0  0  0  0  0  0  0  0 66  0  0
    7.8920   -9.4588   -0.7683 H   0  0  0  0  0  0  0  0  0  0  0  0
    8.6947  -10.6725    0.2443 H   0  0  0  0  0  0  0  0  0  0  0  0
    7.4455   -9.6343    1.0191 H   0  0  0  0  0  0  0  0  0  0  0  0
    6.9174   -7.7639   -0.0210 H   0  0  0  0  0  0  0  0  0  0  0  0
   10.2315   -4.2809    1.0176 H   0  0  0  0  0  0  0  0  0  0  0  0
   13.0213   -6.1250    1.9409 H   0  0  0  0  0  0  0  0  0  0  0  0
   12.1731   -5.1316    0.6181 H   0  0  0  0  0  0  0  0  0  0  0  0
   11.5406   -5.1517    2.3074 H   0  0  0  0  0  0  0  0  0  0  0  0
    8.0730   -2.5866    0.4722 H   0  0  0  0  0  0  0  0  0  0  0  0
    6.3900    1.2364    0.5772 H   0  0  0  0  0  0  0  0  0  0  0  0
    6.7760    1.0551   -1.2120 H   0  0  0  0  0  0  0  0  0  0  0  0
    8.7471    1.7993   -0.1708 H   0  0  0  0  0  0  0  0  0  0  0  0
    8.9331    0.0936   -0.6297 H   0  0  0  0  0  0  0  0  0  0  0  0
    8.5083    0.3864    3.3266 H   0  0  0  0  0  0  0  0  0  0  0  0
    7.0361    0.8149    2.4585 H   0  0  0  0  0  0  0  0  0  0  0  0
    9.6319    2.4716    2.7924 H   0  0  0  0  0  0  0  0  0  0  0  0
    8.0093    2.7979    3.4253 H   0  0  0  0  0  0  0  0  0  0  0  0
    9.8199    4.3910    1.7932 H   0  0  0  0  0  0  0  0  0  0  0  0
    8.5143    5.1019    0.7554 H   0  0  0  0  0  0  0  0  0  0  0  0
    7.0355    5.2910    2.6444 H   0  0  0  0  0  0  0  0  0  0  0  0
    8.3855    4.7361    3.7887 H   0  0  0  0  0  0  0  0  0  0  0  0
    8.5156    6.8486    4.8175 H   0  0  0  0  0  0  0  0  0  0  0  0
    8.9518    8.2048    3.7707 H   0  0  0  0  0  0  0  0  0  0  0  0
    7.2388    7.5404    3.6978 H   0  0  0  0  0  0  0  0  0  0  0  0
    4.3175    0.4774   -0.6001 H   0  0  0  0  0  0  0  0  0  0  0  0
    2.0180   -0.6795   -3.1246 H   0  0  0  0  0  0  0  0  0  0  0  0
   -0.2908   -0.2162   -3.5885 H   0  0  0  0  0  0  0  0  0  0  0  0
   -3.4352   -0.7945   -0.1805 H   0  0  0  0  0  0  0  0  0  0  0  0
   -5.4265   -0.1421    0.8301 H   0  0  0  0  0  0  0  0  0  0  0  0
   -5.6179   -1.7405    0.0321 H   0  0  0  0  0  0  0  0  0  0  0  0
   -7.9027    0.2050    0.7350 H   0  0  0  0  0  0  0  0  0  0  0  0
   -7.4346   -1.3097    1.5436 H   0  0  0  0  0  0  0  0  0  0  0  0
   -9.6630   -2.2028    0.9723 H   0  0  0  0  0  0  0  0  0  0  0  0
   -9.9623   -0.6156    0.1165 H   0  0  0  0  0  0  0  0  0  0  0  0
  -11.3722   -2.4349   -0.7867 H   0  0  0  0  0  0  0  0  0  0  0  0
  -10.1935   -1.7426   -1.9876 H   0  0  0  0  0  0  0  0  0  0  0  0
  -10.6271   -4.6767    0.2769 H   0  0  0  0  0  0  0  0  0  0  0  0
   -8.9520   -4.0129    0.4935 H   0  0  0  0  0  0  0  0  0  0  0  0
   -8.9296   -6.4770    0.0877 H   0  0  0  0  0  0  0  0  0  0  0  0
   -8.1294   -5.4500   -1.2333 H   0  0  0  0  0  0  0  0  0  0  0  0
  -11.7051   -6.9821   -2.2454 H   0  0  0  0  0  0  0  0  0  0  0  0
  -11.1086   -7.4347   -0.6298 H   0  0  0  0  0  0  0  0  0  0  0  0
  -11.6915   -5.6976   -0.9640 H   0  0  0  0  0  0  0  0  0  0  0  0
   -4.5785    2.1507   -5.5194 H   0  0  0  0  0  0  0  0  0  0  0  0
   -7.3941    0.5325   -2.7459 H   0  0  0  0  0  0  0  0  0  0  0  0
   -6.4623    3.1987   -7.2962 H   0  0  0  0  0  0  0  0  0  0  0  0
  -11.4897    2.0958   -4.2894 H   0  0  0  0  0  0  0  0  0  0  0  0
  -11.9819    0.9727   -5.5975 H   0  0  0  0  0  0  0  0  0  0  0  0
  -12.7686    2.6399   -5.4398 H   0  0  0  0  0  0  0  0  0  0  0  0
   -9.6469    1.3257   -4.1073 H   0  0  0  0  0  0  0  0  0  0  0  0
   -7.5360    3.4446   -9.3117 H   0  0  0  0  0  0  0  0  0  0  0  0
   -8.9355    4.5508   -9.7379 H   0  0  0  0  0  0  0  0  0  0  0  0
   -7.7137    5.0727   -8.5395 H   0  0  0  0  0  0  0  0  0  0  0  0
    5.1792   -5.6118   -0.4379 H   0  0  0  0  0  0  0  0  0  0  0  0
  1  2  1  0
  2  3  1  0
  3  4  2  0
  4  5  1  0
  5  6  2  0
  6  7  1  0
  7  8  2  0
  8  9  1  0
  9 10  1  0
  6 11  1  0
 11 12  1  0
 12 13  1  0
 13 14  2  0
 14 15  1  0
 15 16  1  0
 16 17  1  0
 17 18  1  0
 18 19  1  0
 19 20  1  0
 20 21  1  0
 21 22  1  0
 22 23  1  0
 23 24  1  0
 24 25  1  0
 14 26  1  0
 26 27  2  0
 27 28  1  0
 27 29  1  0
 29 30  2  0
 30 31  1  0
 31 32  2  0
 32 33  1  0
 33 34  2  0
 34 35  1  0
 35 36  1  0
 36 37  1  0
 37 38  1  0
 38 39  1  0
 39 40  1  0
 40 41  1  0
 41 42  1  0
 42 43  1  0
 43 44  1  0
 44 45  1  0
 45 46  1  0
 35 47  2  0
 47 48  1  0
 48 49  1  0
 48 50  2  0
 50 51  1  0
 51 52  2  0
 52 53  1  0
 53 54  2  0
 54 55  1  0
 55 56  1  0
 56 57  1  0
 55 58  2  0
 54 59  1  0
 59 60  1  0
 47 61  1  0
 32 62  1  0
 62 63  2  0
 63 64  1  0
 64 65  1  0
 65 66  2  0
 12 67  2  0
  8  3  1  0
 67  5  1  0
 28 13  1  0
 66 29  1  0
 61 33  1  0
 52 49  1  0
 58 51  1  0
 66 62  1  0
  1 68  1  0
  1 69  1  0
  1 70  1  0
  4 71  1  0
  7 72  1  0
 10 73  1  0
 10 74  1  0
 10 75  1  0
 11 76  1  0
 16 77  1  0
 16 78  1  0
 17 79  1  0
 17 80  1  0
 19 81  1  0
 19 82  1  0
 20 83  1  0
 20 84  1  0
 22 85  1  0
 22 86  1  0
 23 87  1  0
 23 88  1  0
 25 89  1  0
 25 90  1  0
 25 91  1  0
 26 92  1  0
 30 93  1  0
 31 94  1  0
 34 95  1  0
 37 96  1  0
 37 97  1  0
 38 98  1  0
 38 99  1  0
 40100  1  0
 40101  1  0
 41102  1  0
 41103  1  0
 43104  1  0
 43105  1  0
 44106  1  0
 44107  1  0
 46108  1  0
 46109  1  0
 46110  1  0
 49111  1  0
 50112  1  0
 53113  1  0
 57114  1  0
 57115  1  0
 57116  1  0
 58117  1  0
 60118  1  0
 60119  1  0
 60120  1  0
 67121  1  0
M  END
