
     RDKit          3D

121128  0  0  0  0  0  0  0  0999 V2000
  -10.2741    3.4059    7.0120 C   0  0  0  0  0  0  0  0  0  0  0  0
   -9.9165    2.1639    7.5670 O   0  0  0  0  0  0  0  0  0  1  0  0
   -8.9600    1.3360    6.9609 C   0  0  0  0  0  0  0  0  0  2  0  0
   -8.3616    1.7631    5.7717 C   0  0  0  0  0  0  0  0  0  3  0  0
   -7.4248    0.9441    5.2014 C   0  0  0  0  0  0  0  0  0  4  0  0
   -7.0400   -0.2826    5.7399 C   0  0  0  0  0  0  0  0  0  5  0  0
   -7.6522   -0.6597    6.9005 C   0  0  0  0  0  0  0  0  0  6  0  0
   -8.5916    0.1213    7.5075 C   0  0  0  0  0  0  0  0  0  7  0  0
   -9.2482   -0.2231    8.6950 O   0  0  0  0  0  0  0  0  0  8  0  0
   -8.8943   -1.5072    9.2271 C   0  0  0  0  0  0  0  0  0  9  0  0
   -6.0859   -0.7707    4.9255 N   0  0  0  0  0  0  0  0  0 10  0  0
   -5.8670    0.0870    3.9254 C   0  0  0  0  0  0  0  0  0 11  0  0
   -4.8525   -0.0422    2.9000 C   0  0  0  0  0  0  0  0  0 12  0  0
   -4.6091    0.7567    1.7761 C   0  0  0  0  0  0  0  0  0 13  0  0
   -5.4997    1.7796    1.5006 O   0  0  0  0  0  0  0  0  0 14  0  0
   -5.5820    2.7058    0.5058 C   0  0  0  0  0  0  0  0  0 15  0  0
   -5.7285    2.1526   -0.8734 C   0  0  0  0  0  0  0  0  0 16  0  0
   -5.8358    3.2287   -1.7863 O   0  0  0  0  0  0  0  0  0 17  0  0
   -5.8585    2.6424   -3.0706 C   0  0  0  0  0  0  0  0  0 18  0  0
   -6.1090    3.6571   -4.1320 C   0  0  0  0  0  0  0  0  0 19  0  0
   -7.3620    4.2804   -3.9336 O   0  0  0  0  0  0  0  0  0 20  0  0
   -8.3902    3.3666   -3.9825 C   0  0  0  0  0  0  0  0  0 21  0  0
   -9.7222    4.0794   -3.8176 C   0  0  0  0  0  0  0  0  0 22  0  0
   -9.9146    5.0153   -4.8408 O   0  0  0  0  0  0  0  0  0 23  0  0
  -11.1450    5.6896   -4.7096 C   0  0  0  0  0  0  0  0  0 24  0  0
   -3.5234    0.4533    1.0517 C   0  0  0  0  0  0  0  0  0 25  0  0
   -2.7366   -0.5794    1.4170 C   0  0  0  0  0  0  0  0  0 26  0  0
   -3.5172   -1.2398    2.9019 S   0  0  0  0  0  0  0  0  0 27  0  0
   -1.5544   -1.0836    0.7743 C   0  0  0  0  0  0  0  0  0 28  0  0
   -0.3334   -0.7430    1.3004 C   0  0  0  0  0  0  0  0  0 29  0  0
    0.8089   -1.2232    0.6938 C   0  0  0  0  0  0  0  0  0 30  0  0
    0.7095   -2.0148   -0.3991 C   0  0  0  0  0  0  0  0  0 31  0  0
    1.9132   -2.6446   -0.9366 C   0  0  0  0  0  0  0  0  0 32  0  0
    3.0633   -2.9212   -0.1926 C   0  0  0  0  0  0  0  0  0 33  0  0
    4.0273   -3.6116   -0.7975 C   0  0  0  0  0  0  0  0  0 34  0  0
    5.2430   -3.9611   -0.1613 O   0  0  0  0  0  0  0  0  0 35  0  0
    5.6719   -3.7283    1.1045 C   0  0  0  0  0  0  0  0  0 36  0  0
    4.9544   -4.3272    2.2542 C   0  0  0  0  0  0  0  0  0 37  0  0
    5.4738   -4.0368    3.5092 O   0  0  0  0  0  0  0  0  0 38  0  0
    6.7847   -4.4603    3.6593 C   0  0  0  0  0  0  0  0  0 39  0  0
    6.9311   -5.9457    3.4138 C   0  0  0  0  0  0  0  0  0 40  0  0
    6.1997   -6.7468    4.2331 O   0  0  0  0  0  0  0  0  0 41  0  0
    6.4433   -6.6873    5.5710 C   0  0  0  0  0  0  0  0  0 42  0  0
    7.8573   -7.0834    5.9387 C   0  0  0  0  0  0  0  0  0 43  0  0
    7.9776   -6.9883    7.3235 O   0  0  0  0  0  0  0  0  0 44  0  0
    9.2475   -7.3299    7.7515 C   0  0  0  0  0  0  0  0  0 45  0  0
    3.8335   -3.9963   -2.0938 C   0  0  0  0  0  0  0  0  0 46  0  0
    4.6502   -4.8096   -2.9701 C   0  0  0  0  0  0  0  0  0 47  0  0
    5.6102   -5.6319   -2.5258 N   0  0  0  0  0  0  0  0  0 48  0  0
    4.6228   -4.8126   -4.3711 C   0  0  0  0  0  0  0  0  0 49  0  0
    5.6546   -5.7085   -4.6908 C   0  0  0  0  0  0  0  0  0 50  0  0
    6.2322   -6.1893   -3.5474 C   0  0  0  0  0  0  0  0  0 51  0  0
    7.2909   -7.1118   -3.6171 C   0  0  0  0  0  0  0  0  0 52  0  0
    7.7197   -7.5053   -4.8605 C   0  0  0  0  0  0  0  0  0 53  0  0
    7.1463   -7.0224   -6.0441 C   0  0  0  0  0  0  0  0  0 54  0  0
    7.6077   -7.4330   -7.2856 O   0  0  0  0  0  0  0  0  0 55  0  0
    7.0015   -6.8902   -8.4403 C   0  0  0  0  0  0  0  0  0 56  0  0
    6.1204   -6.1306   -5.9183 C   0  0  0  0  0  0  0  0  0 57  0  0
    8.7417   -8.4060   -5.0119 O   0  0  0  0  0  0  0  0  0 58  0  0
    9.4668   -9.0547   -4.0107 C   0  0  0  0  0  0  0  0  0 59  0  0
    2.1900   -3.3622   -2.5241 S   0  0  0  0  0  0  0  0  0 60  0  0
   -0.5422   -2.3261   -0.8954 C   0  0  0  0  0  0  0  0  0 61  0  0
   -0.6977   -3.1605   -2.0737 N   0  0  0  0  0  0  0  0  0 62  0  0
   -2.3972   -3.2568   -2.2999 S   0  0  0  0  0  0  0  0  0 63  0  0
   -2.8820   -2.2567   -0.9254 N   0  0  0  0  0  0  0  0  0 64  0  0
   -1.6092   -1.8986   -0.3570 C   0  0  0  0  0  0  0  0  0 65  0  0
   -6.6829    1.1748    4.0511 C   0  0  0  0  0  0  0  0  0 66  0  0
  -10.9056    3.3230    6.1266 H   0  0  0  0  0  0  0  0  0  0  0  0
   -9.3569    3.9813    6.6809 H   0  0  0  0  0  0  0  0  0  0  0  0
  -10.7517    4.0719    7.7665 H   0  0  0  0  0  0  0  0  0  0  0  0
   -8.6276    2.6870    5.3246 H   0  0  0  0  0  0  0  0  0  0  0  0
   -7.3680   -1.6087    7.3347 H   0  0  0  0  0  0  0  0  0  0  0  0
   -7.9025   -1.3793    9.6682 H   0  0  0  0  0  0  0  0  0  0  0  0
   -8.9357   -2.2696    8.4118 H   0  0  0  0  0  0  0  0  0  0  0  0
   -9.6193   -1.7731   10.0132 H   0  0  0  0  0  0  0  0  0  0  0  0
   -5.6009   -1.6669    5.0620 H   0  0  0  0  0  0  0  0  0  0  0  0
   -4.7287    3.4194    0.5981 H   0  0  0  0  0  0  0  0  0  0  0  0
   -6.4991    3.3374    0.6893 H   0  0  0  0  0  0  0  0  0  0  0  0
   -4.9639    1.4895   -1.2411 H   0  0  0  0  0  0  0  0  0  0  0  0
   -6.6965    1.5662   -0.9600 H   0  0  0  0  0  0  0  0  0  0  0  0
   -6.5417    1.7956   -3.1303 H   0  0  0  0  0  0  0  0  0  0  0  0
   -4.8038    2.2317   -3.2073 H   0  0  0  0  0  0  0  0  0  0  0  0
   -5.3153    4.4067   -4.1974 H   0  0  0  0  0  0  0  0  0  0  0  0
   -6.1949    3.0977   -5.0992 H   0  0  0  0  0  0  0  0  0  0  0  0
   -8.3348    2.7892   -4.9425 H   0  0  0  0  0  0  0  0  0  0  0  0
   -8.2983    2.6430   -3.1277 H   0  0  0  0  0  0  0  0  0  0  0  0
   -9.6850    4.6134   -2.8459 H   0  0  0  0  0  0  0  0  0  0  0  0
  -10.5429    3.3064   -3.8460 H   0  0  0  0  0  0  0  0  0  0  0  0
  -11.2599    6.4001   -5.5342 H   0  0  0  0  0  0  0  0  0  0  0  0
  -11.9808    4.9713   -4.6556 H   0  0  0  0  0  0  0  0  0  0  0  0
  -11.1078    6.2442   -3.7293 H   0  0  0  0  0  0  0  0  0  0  0  0
   -3.2422    1.0572    0.1450 H   0  0  0  0  0  0  0  0  0  0  0  0
   -0.2190   -0.1035    2.1847 H   0  0  0  0  0  0  0  0  0  0  0  0
    1.7794   -0.9456    1.1280 H   0  0  0  0  0  0  0  0  0  0  0  0
    3.1205   -2.5362    0.8375 H   0  0  0  0  0  0  0  0  0  0  0  0
    6.7457   -4.0385    1.1946 H   0  0  0  0  0  0  0  0  0  0  0  0
    5.6144   -2.5991    1.2588 H   0  0  0  0  0  0  0  0  0  0  0  0
    3.9040   -4.0011    2.2818 H   0  0  0  0  0  0  0  0  0  0  0  0
    4.8753   -5.4580    2.1663 H   0  0  0  0  0  0  0  0  0  0  0  0
    7.5345   -3.9312    3.0836 H   0  0  0  0  0  0  0  0  0  0  0  0
    7.0250   -4.2911    4.7479 H   0  0  0  0  0  0  0  0  0  0  0  0
    6.7314   -6.1847    2.3582 H   0  0  0  0  0  0  0  0  0  0  0  0
    8.0333   -6.1498    3.5372 H   0  0  0  0  0  0  0  0  0  0  0  0
    5.7716   -7.4190    6.0782 H   0  0  0  0  0  0  0  0  0  0  0  0
    6.1756   -5.6951    6.0380 H   0  0  0  0  0  0  0  0  0  0  0  0
    7.9741   -8.1782    5.7004 H   0  0  0  0  0  0  0  0  0  0  0  0
    8.6391   -6.5189    5.4248 H   0  0  0  0  0  0  0  0  0  0  0  0
    9.9661   -6.6311    7.2734 H   0  0  0  0  0  0  0  0  0  0  0  0
    9.3400   -7.1601    8.8514 H   0  0  0  0  0  0  0  0  0  0  0  0
    9.4958   -8.3569    7.4556 H   0  0  0  0  0  0  0  0  0  0  0  0
    5.8221   -5.8033   -1.4975 H   0  0  0  0  0  0  0  0  0  0  0  0
    3.9814   -4.2674   -5.0224 H   0  0  0  0  0  0  0  0  0  0  0  0
    7.6798   -7.4403   -2.6867 H   0  0  0  0  0  0  0  0  0  0  0  0
    7.4656   -7.2564   -9.3778 H   0  0  0  0  0  0  0  0  0  0  0  0
    5.9041   -6.9998   -8.4212 H   0  0  0  0  0  0  0  0  0  0  0  0
    7.1665   -5.7714   -8.4836 H   0  0  0  0  0  0  0  0  0  0  0  0
    5.6365   -5.7290   -6.7938 H   0  0  0  0  0  0  0  0  0  0  0  0
    9.3492  -10.1681   -4.0555 H   0  0  0  0  0  0  0  0  0  0  0  0
   10.5570   -8.8908   -4.1344 H   0  0  0  0  0  0  0  0  0  0  0  0
    9.1839   -8.7443   -2.9890 H   0  0  0  0  0  0  0  0  0  0  0  0
   -6.7576    2.0482    3.4020 H   0  0  0  0  0  0  0  0  0  0  0  0
  1  2  1  0
  2  3  1  0
  3  4  2  0
  4  5  1  0
  5  6  2  0
  6  7  1  0
  7  8  2  0
  8  9  1  0
  9 10  1  0
  6 11  1  0
 11 12  1  0
 12 13  1  0
 13 14  2  0
 14 15  1  0
 15 16  1  0
 16 17  1  0
 17 18  1  0
 18 19  1  0
 19 20  1  0
 20 21  1  0
 21 22  1  0
 22 23  1  0
 23 24  1  0
 24 25  1  0
 14 26  1  0
 26 27  2  0
 27 28  1  0
 27 29  1  0
 29 30  2  0
 30 31  1  0
 31 32  2  0
 32 33  1  0
 33 34  2  0
 34 35  1  0
 35 36  1  0
 36 37  1  0
 37 38  1  0
 38 39  1  0
 39 40  1  0
 40 41  1  0
 41 42  1  0
 42 43  1  0
 43 44  1  0
 44 45  1  0
 45 46  1  0
 35 47  2  0
 47 48  1  0
 48 49  1  0
 48 50  2  0
 50 51  1  0
 51 52  2  0
 52 53  1  0
 53 54  2  0
 54 55  1  0
 55 56  1  0
 56 57  1  0
 55 58  2  0
 54 59  1  0
 59 60  1  0
 47 61  1  0
 32 62  1  0
 62 63  2  0
 63 64  1  0
 64 65  1  0
 65 66  2  0
 12 67  2  0
  8  3  1  0
 67  5  1  0
 28 13  1  0
 66 29  1  0
 61 33  1  0
 52 49  1  0
 58 51  1  0
 66 62  1  0
  1 68  1  0
  1 69  1  0
  1 70  1  0
  4 71  1  0
  7 72  1  0
 10 73  1  0
 10 74  1  0
 10 75  1  0
 11 76  1  0
 16 77  1  0
 16 78  1  0
 17 79  1  0
 17 80  1  0
 19 81  1  0
 19 82  1  0
 20 83  1  0
 20 84  1  0
 22 85  1  0
 22 86  1  0
 23 87  1  0
 23 88  1  0
 25 89  1  0
 25 90  1  0
 25 91  1  0
 26 92  1  0
 30 93  1  0
 31 94  1  0
 34 95  1  0
 37 96  1  0
 37 97  1  0
 38 98  1  0
 38 99  1  0
 40100  1  0
 40101  1  0
 41102  1  0
 41103  1  0
 43104  1  0
 43105  1  0
 44106  1  0
 44107  1  0
 46108  1  0
 46109  1  0
 46110  1  0
 49111  1  0
 50112  1  0
 53113  1  0
 57114  1  0
 57115  1  0
 57116  1  0
 58117  1  0
 60118  1  0
 60119  1  0
 60120  1  0
 67121  1  0
M  END
