
     RDKit          3D

121128  0  0  0  0  0  0  0  0999 V2000
    9.3933   -7.8864    1.1626 C   0  0  0  0  0  0  0  0  0  0  0  0
   10.2169   -6.8071    0.7670 O   0  0  0  0  0  0  0  0  0  1  0  0
    9.5958   -5.6022    0.4413 C   0  0  0  0  0  0  0  0  0  2  0  0
    8.2223   -5.4401    0.4995 C   0  0  0  0  0  0  0  0  0  3  0  0
    7.7242   -4.2185    0.1588 C   0  0  0  0  0  0  0  0  0  4  0  0
    8.4495   -3.1212   -0.2405 C   0  0  0  0  0  0  0  0  0  5  0  0
    9.8393   -3.2974   -0.2929 C   0  0  0  0  0  0  0  0  0  6  0  0
   10.3805   -4.5312    0.0471 C   0  0  0  0  0  0  0  0  0  7  0  0
   11.7496   -4.7377    0.0047 O   0  0  0  0  0  0  0  0  0  8  0  0
   12.6680   -3.7409   -0.3703 C   0  0  0  0  0  0  0  0  0  9  0  0
    7.6091   -2.1092   -0.4991 N   0  0  0  0  0  0  0  0  0 10  0  0
    6.3267   -2.4798   -0.2908 C   0  0  0  0  0  0  0  0  0 11  0  0
    5.1070   -1.7004   -0.4630 C   0  0  0  0  0  0  0  0  0 12  0  0
    4.8973   -0.4198   -0.8639 C   0  0  0  0  0  0  0  0  0 13  0  0
    6.0179    0.3899   -1.2207 O   0  0  0  0  0  0  0  0  0 14  0  0
    5.9910    1.6962   -1.6203 C   0  0  0  0  0  0  0  0  0 15  0  0
    5.6201    2.7567   -0.6365 C   0  0  0  0  0  0  0  0  0 16  0  0
    6.5274    2.7979    0.4246 O   0  0  0  0  0  0  0  0  0 17  0  0
    6.3279    3.7601    1.3505 C   0  0  0  0  0  0  0  0  0 18  0  0
    7.4740    3.8469    2.3382 C   0  0  0  0  0  0  0  0  0 19  0  0
    8.6467    4.1390    1.7050 O   0  0  0  0  0  0  0  0  0 20  0  0
    9.1996    3.1883    0.9371 C   0  0  0  0  0  0  0  0  0 21  0  0
    9.6805    2.0226    1.7995 C   0  0  0  0  0  0  0  0  0 22  0  0
   10.6307    2.4901    2.6939 O   0  0  0  0  0  0  0  0  0 23  0  0
   11.7229    3.0236    2.0588 C   0  0  0  0  0  0  0  0  0 24  0  0
    3.6427    0.0359   -0.9212 C   0  0  0  0  0  0  0  0  0 25  0  0
    2.6346   -0.8334   -0.5717 C   0  0  0  0  0  0  0  0  0 26  0  0
    3.5234   -2.3418   -0.1456 S   0  0  0  0  0  0  0  0  0 27  0  0
    1.1885   -0.6552   -0.6163 C   0  0  0  0  0  0  0  0  0 28  0  0
    0.6472    0.5918   -0.8403 C   0  0  0  0  0  0  0  0  0 29  0  0
   -0.7193    0.7431   -0.9499 C   0  0  0  0  0  0  0  0  0 30  0  0
   -1.5424   -0.3562   -0.8366 C   0  0  0  0  0  0  0  0  0 31  0  0
   -2.9531   -0.2032   -0.9847 C   0  0  0  0  0  0  0  0  0 32  0  0
   -3.6480    0.9178   -1.2018 C   0  0  0  0  0  0  0  0  0 33  0  0
   -4.9825    0.8618   -1.3351 C   0  0  0  0  0  0  0  0  0 34  0  0
   -5.7927    1.9978   -1.5615 O   0  0  0  0  0  0  0  0  0 35  0  0
   -5.2965    3.2875   -1.6641 C   0  0  0  0  0  0  0  0  0 36  0  0
   -6.2812    4.3919   -1.8669 C   0  0  0  0  0  0  0  0  0 37  0  0
   -7.2218    4.5748   -0.8925 O   0  0  0  0  0  0  0  0  0 38  0  0
   -8.0290    3.5133   -0.6120 C   0  0  0  0  0  0  0  0  0 39  0  0
   -9.1248    3.8244    0.3899 C   0  0  0  0  0  0  0  0  0 40  0  0
   -8.7437    4.2404    1.6110 O   0  0  0  0  0  0  0  0  0 41  0  0
   -7.9661    3.3467    2.3356 C   0  0  0  0  0  0  0  0  0 42  0  0
   -7.7344    4.0106    3.6946 C   0  0  0  0  0  0  0  0  0 43  0  0
   -6.9825    3.2764    4.5643 O   0  0  0  0  0  0  0  0  0 44  0  0
   -5.7060    2.9739    4.1639 C   0  0  0  0  0  0  0  0  0 45  0  0
   -5.5797   -0.3873   -1.2387 C   0  0  0  0  0  0  0  0  0 46  0  0
   -6.9515   -0.8222   -1.3633 C   0  0  0  0  0  0  0  0  0 47  0  0
   -8.0448   -0.1506   -1.7038 N   0  0  0  0  0  0  0  0  0 48  0  0
   -7.3658   -2.1137   -1.1038 C   0  0  0  0  0  0  0  0  0 49  0  0
   -8.7237   -2.2197   -1.2899 C   0  0  0  0  0  0  0  0  0 50  0  0
   -9.1437   -0.9462   -1.6766 C   0  0  0  0  0  0  0  0  0 51  0  0
  -10.4856   -0.7868   -1.9394 C   0  0  0  0  0  0  0  0  0 52  0  0
  -11.4062   -1.8309   -1.8293 C   0  0  0  0  0  0  0  0  0 53  0  0
  -10.9381   -3.0775   -1.4385 C   0  0  0  0  0  0  0  0  0 54  0  0
  -11.8252   -4.1316   -1.3164 O   0  0  0  0  0  0  0  0  0 55  0  0
  -11.4308   -5.4240   -0.9125 C   0  0  0  0  0  0  0  0  0 56  0  0
   -9.5978   -3.2730   -1.1686 C   0  0  0  0  0  0  0  0  0 57  0  0
  -12.7417   -1.6930   -2.0848 O   0  0  0  0  0  0  0  0  0 58  0  0
  -13.2652   -0.4414   -2.4884 C   0  0  0  0  0  0  0  0  0 59  0  0
   -4.1743   -1.4985   -0.9461 S   0  0  0  0  0  0  0  0  0 60  0  0
   -0.9507   -1.5725   -0.6122 C   0  0  0  0  0  0  0  0  0 61  0  0
   -1.7352   -2.7828   -0.4913 N   0  0  0  0  0  0  0  0  0 62  0  0
   -0.6767   -4.0549   -0.2438 S   0  0  0  0  0  0  0  0  0 63  0  0
    0.8408   -3.0462   -0.2867 N   0  0  0  0  0  0  0  0  0 64  0  0
    0.3137   -1.7283   -0.5078 C   0  0  0  0  0  0  0  0  0 65  0  0
    6.3943   -3.7967    0.1211 C   0  0  0  0  0  0  0  0  0 66  0  0
    8.7720   -7.6627    2.0266 H   0  0  0  0  0  0  0  0  0  0  0  0
   10.0073   -8.8203    1.3284 H   0  0  0  0  0  0  0  0  0  0  0  0
    8.6780   -8.1665    0.3300 H   0  0  0  0  0  0  0  0  0  0  0  0
    7.6273   -6.2817    0.8103 H   0  0  0  0  0  0  0  0  0  0  0  0
   10.4613   -2.4508   -0.6000 H   0  0  0  0  0  0  0  0  0  0  0  0
   12.5503   -2.9210    0.3676 H   0  0  0  0  0  0  0  0  0  0  0  0
   12.4551   -3.3848   -1.4028 H   0  0  0  0  0  0  0  0  0  0  0  0
   13.6781   -4.1673   -0.2884 H   0  0  0  0  0  0  0  0  0  0  0  0
    7.9370   -1.1681   -0.8196 H   0  0  0  0  0  0  0  0  0  0  0  0
    7.0441    1.9581   -1.9599 H   0  0  0  0  0  0  0  0  0  0  0  0
    5.4036    1.8094   -2.5763 H   0  0  0  0  0  0  0  0  0  0  0  0
    4.6305    2.7382   -0.2150 H   0  0  0  0  0  0  0  0  0  0  0  0
    5.7523    3.7398   -1.1543 H   0  0  0  0  0  0  0  0  0  0  0  0
    5.3900    3.5617    1.9307 H   0  0  0  0  0  0  0  0  0  0  0  0
    6.2850    4.7681    0.8501 H   0  0  0  0  0  0  0  0  0  0  0  0
    7.4838    2.8829    2.8947 H   0  0  0  0  0  0  0  0  0  0  0  0
    7.2321    4.6054    3.1367 H   0  0  0  0  0  0  0  0  0  0  0  0
   10.0541    3.5838    0.2959 H   0  0  0  0  0  0  0  0  0  0  0  0
    8.5500    2.7195    0.1703 H   0  0  0  0  0  0  0  0  0  0  0  0
   10.1344    1.2149    1.1504 H   0  0  0  0  0  0  0  0  0  0  0  0
    8.8751    1.5771    2.4087 H   0  0  0  0  0  0  0  0  0  0  0  0
   12.4822    3.3696    2.8319 H   0  0  0  0  0  0  0  0  0  0  0  0
   12.2086    2.2535    1.4390 H   0  0  0  0  0  0  0  0  0  0  0  0
   11.5124    3.9792    1.4972 H   0  0  0  0  0  0  0  0  0  0  0  0
    3.3701    1.0670   -1.2388 H   0  0  0  0  0  0  0  0  0  0  0  0
    1.3193    1.4616   -0.9242 H   0  0  0  0  0  0  0  0  0  0  0  0
   -1.0985    1.7311   -1.1248 H   0  0  0  0  0  0  0  0  0  0  0  0
   -3.1108    1.9112   -1.2746 H   0  0  0  0  0  0  0  0  0  0  0  0
   -4.7921    3.5071   -0.6702 H   0  0  0  0  0  0  0  0  0  0  0  0
   -4.4889    3.4068   -2.4292 H   0  0  0  0  0  0  0  0  0  0  0  0
   -6.8392    4.2831   -2.8419 H   0  0  0  0  0  0  0  0  0  0  0  0
   -5.6524    5.3390   -1.9326 H   0  0  0  0  0  0  0  0  0  0  0  0
   -8.5322    3.1577   -1.5315 H   0  0  0  0  0  0  0  0  0  0  0  0
   -7.4169    2.6753   -0.1944 H   0  0  0  0  0  0  0  0  0  0  0  0
   -9.6779    2.8436    0.5229 H   0  0  0  0  0  0  0  0  0  0  0  0
   -9.9012    4.5026   -0.0365 H   0  0  0  0  0  0  0  0  0  0  0  0
   -8.4190    2.3471    2.4361 H   0  0  0  0  0  0  0  0  0  0  0  0
   -6.9670    3.3243    1.8173 H   0  0  0  0  0  0  0  0  0  0  0  0
   -8.7184    4.2312    4.1539 H   0  0  0  0  0  0  0  0  0  0  0  0
   -7.2597    5.0142    3.4625 H   0  0  0  0  0  0  0  0  0  0  0  0
   -5.2205    2.4114    5.0119 H   0  0  0  0  0  0  0  0  0  0  0  0
   -5.7288    2.2540    3.3108 H   0  0  0  0  0  0  0  0  0  0  0  0
   -5.0964    3.8702    3.9658 H   0  0  0  0  0  0  0  0  0  0  0  0
   -8.0459    0.8573   -1.9614 H   0  0  0  0  0  0  0  0  0  0  0  0
   -6.7530   -2.9439   -0.7986 H   0  0  0  0  0  0  0  0  0  0  0  0
  -10.8149    0.1898   -2.2397 H   0  0  0  0  0  0  0  0  0  0  0  0
  -11.0275   -5.3045    0.1272 H   0  0  0  0  0  0  0  0  0  0  0  0
  -10.6064   -5.7945   -1.5357 H   0  0  0  0  0  0  0  0  0  0  0  0
  -12.2986   -6.1193   -0.8971 H   0  0  0  0  0  0  0  0  0  0  0  0
   -9.2499   -4.2651   -0.8577 H   0  0  0  0  0  0  0  0  0  0  0  0
  -12.9243    0.3858   -1.8333 H   0  0  0  0  0  0  0  0  0  0  0  0
  -14.3775   -0.4922   -2.2997 H   0  0  0  0  0  0  0  0  0  0  0  0
  -13.0317   -0.2197   -3.5501 H   0  0  0  0  0  0  0  0  0  0  0  0
    5.5379   -4.4028    0.3726 H   0  0  0  0  0  0  0  0  0  0  0  0
  1  2  1  0
  2  3  1  0
  3  4  2  0
  4  5  1  0
  5  6  2  0
  6  7  1  0
  7  8  2  0
  8  9  1  0
  9 10  1  0
  6 11  1  0
 11 12  1  0
 12 13  1  0
 13 14  2  0
 14 15  1  0
 15 16  1  0
 16 17  1  0
 17 18  1  0
 18 19  1  0
 19 20  1  0
 20 21  1  0
 21 22  1  0
 22 23  1  0
 23 24  1  0
 24 25  1  0
 14 26  1  0
 26 27  2  0
 27 28  1  0
 27 29  1  0
 29 30  2  0
 30 31  1  0
 31 32  2  0
 32 33  1  0
 33 34  2  0
 34 35  1  0
 35 36  1  0
 36 37  1  0
 37 38  1  0
 38 39  1  0
 39 40  1  0
 40 41  1  0
 41 42  1  0
 42 43  1  0
 43 44  1  0
 44 45  1  0
 45 46  1  0
 35 47  2  0
 47 48  1  0
 48 49  1  0
 48 50  2  0
 50 51  1  0
 51 52  2  0
 52 53  1  0
 53 54  2  0
 54 55  1  0
 55 56  1  0
 56 57  1  0
 55 58  2  0
 54 59  1  0
 59 60  1  0
 47 61  1  0
 32 62  1  0
 62 63  2  0
 63 64  1  0
 64 65  1  0
 65 66  2  0
 12 67  2  0
  8  3  1  0
 67  5  1  0
 28 13  1  0
 66 29  1  0
 61 33  1  0
 52 49  1  0
 58 51  1  0
 66 62  1  0
  1 68  1  0
  1 69  1  0
  1 70  1  0
  4 71  1  0
  7 72  1  0
 10 73  1  0
 10 74  1  0
 10 75  1  0
 11 76  1  0
 16 77  1  0
 16 78  1  0
 17 79  1  0
 17 80  1  0
 19 81  1  0
 19 82  1  0
 20 83  1  0
 20 84  1  0
 22 85  1  0
 22 86  1  0
 23 87  1  0
 23 88  1  0
 25 89  1  0
 25 90  1  0
 25 91  1  0
 26 92  1  0
 30 93  1  0
 31 94  1  0
 34 95  1  0
 37 96  1  0
 37 97  1  0
 38 98  1  0
 38 99  1  0
 40100  1  0
 40101  1  0
 41102  1  0
 41103  1  0
 43104  1  0
 43105  1  0
 44106  1  0
 44107  1  0
 46108  1  0
 46109  1  0
 46110  1  0
 49111  1  0
 50112  1  0
 53113  1  0
 57114  1  0
 57115  1  0
 57116  1  0
 58117  1  0
 60118  1  0
 60119  1  0
 60120  1  0
 67121  1  0
M  END
