
     RDKit          3D

121128  0  0  0  0  0  0  0  0999 V2000
    8.8293   10.1678   -0.7724 C   0  0  0  0  0  0  0  0  0  0  0  0
    8.6069    8.9133   -0.4969 O   0  0  0  0  0  0  0  0  0  1  0  0
    8.2418    7.7006   -0.2623 C   0  0  0  0  0  0  0  0  0  2  0  0
    6.9070    7.2978   -0.4342 C   0  0  0  0  0  0  0  0  0  3  0  0
    6.4894    6.0115   -0.1931 C   0  0  0  0  0  0  0  0  0  4  0  0
    7.4453    5.1130    0.2317 C   0  0  0  0  0  0  0  0  0  5  0  0
    8.7700    5.4376    0.4221 C   0  0  0  0  0  0  0  0  0  6  0  0
    9.1684    6.7327    0.1747 C   0  0  0  0  0  0  0  0  0  7  0  0
   10.4729    7.1708    0.3332 O   0  0  0  0  0  0  0  0  0  8  0  0
   11.4955    6.3015    0.7685 C   0  0  0  0  0  0  0  0  0  9  0  0
    6.7943    3.9301    0.3945 N   0  0  0  0  0  0  0  0  0 10  0  0
    5.4957    4.0819    0.0874 C   0  0  0  0  0  0  0  0  0 11  0  0
    4.4912    3.0155    0.1232 C   0  0  0  0  0  0  0  0  0 12  0  0
    4.5702    1.7165   -0.2472 C   0  0  0  0  0  0  0  0  0 13  0  0
    5.7934    1.2132   -0.7718 O   0  0  0  0  0  0  0  0  0 14  0  0
    5.9238   -0.1203   -1.1655 C   0  0  0  0  0  0  0  0  0 15  0  0
    7.3233   -0.4216   -1.6734 C   0  0  0  0  0  0  0  0  0 16  0  0
    7.7067    0.3124   -2.7558 O   0  0  0  0  0  0  0  0  0 17  0  0
    6.9833    0.1926   -3.9017 C   0  0  0  0  0  0  0  0  0 18  0  0
    6.9660   -1.2230   -4.4913 C   0  0  0  0  0  0  0  0  0 19  0  0
    6.4265   -2.1347   -3.6344 O   0  0  0  0  0  0  0  0  0 20  0  0
    6.3718   -3.3935   -4.1653 C   0  0  0  0  0  0  0  0  0 21  0  0
    7.7301   -3.9141   -4.4964 C   0  0  0  0  0  0  0  0  0 22  0  0
    7.6535   -5.2289   -5.0330 O   0  0  0  0  0  0  0  0  0 23  0  0
    8.9674   -5.6003   -5.3101 C   0  0  0  0  0  0  0  0  0 24  0  0
    3.4744    0.9493   -0.0981 C   0  0  0  0  0  0  0  0  0 25  0  0
    2.3631    1.5318    0.4148 C   0  0  0  0  0  0  0  0  0 26  0  0
    2.8403    3.2359    0.7140 S   0  0  0  0  0  0  0  0  0 27  0  0
    1.0785    0.9260    0.6983 C   0  0  0  0  0  0  0  0  0 28  0  0
    0.8438   -0.3443    0.2605 C   0  0  0  0  0  0  0  0  0 29  0  0
   -0.3758   -0.9144    0.5535 C   0  0  0  0  0  0  0  0  0 30  0  0
   -1.3609   -0.2394    1.2753 C   0  0  0  0  0  0  0  0  0 31  0  0
   -2.6515   -0.8617    1.5237 C   0  0  0  0  0  0  0  0  0 32  0  0
   -3.7177   -0.5698    2.2582 C   0  0  0  0  0  0  0  0  0 33  0  0
   -4.7847   -1.4118    2.2598 C   0  0  0  0  0  0  0  0  0 34  0  0
   -5.9612   -1.2289    2.9879 O   0  0  0  0  0  0  0  0  0 35  0  0
   -6.3859   -0.2490    3.8300 C   0  0  0  0  0  0  0  0  0 36  0  0
   -6.5690    1.1324    3.3156 C   0  0  0  0  0  0  0  0  0 37  0  0
   -7.0122    2.0673    4.2628 O   0  0  0  0  0  0  0  0  0 38  0  0
   -8.2513    1.7637    4.8102 C   0  0  0  0  0  0  0  0  0 39  0  0
   -8.7715    2.8056    5.7645 C   0  0  0  0  0  0  0  0  0 40  0  0
   -8.0760    3.0999    6.8435 O   0  0  0  0  0  0  0  0  0 41  0  0
   -7.7684    2.3843    7.8986 C   0  0  0  0  0  0  0  0  0 42  0  0
   -6.9453    1.1519    7.8708 C   0  0  0  0  0  0  0  0  0 43  0  0
   -5.6584    1.3304    7.3651 O   0  0  0  0  0  0  0  0  0 44  0  0
   -5.0127    0.0888    7.4756 C   0  0  0  0  0  0  0  0  0 45  0  0
   -4.6635   -2.5281    1.4751 C   0  0  0  0  0  0  0  0  0 46  0  0
   -5.5847   -3.6176    1.2023 C   0  0  0  0  0  0  0  0  0 47  0  0
   -5.3337   -4.6796    0.4139 N   0  0  0  0  0  0  0  0  0 48  0  0
   -6.8614   -3.6689    1.7134 C   0  0  0  0  0  0  0  0  0 49  0  0
   -7.4108   -4.8310    1.2003 C   0  0  0  0  0  0  0  0  0 50  0  0
   -6.4636   -5.4387    0.4069 C   0  0  0  0  0  0  0  0  0 51  0  0
   -6.7736   -6.6409   -0.2418 C   0  0  0  0  0  0  0  0  0 52  0  0
   -8.0210   -7.2041   -0.0829 C   0  0  0  0  0  0  0  0  0 53  0  0
   -8.9700   -6.5844    0.7188 C   0  0  0  0  0  0  0  0  0 54  0  0
  -10.2243   -7.1150    0.9009 O   0  0  0  0  0  0  0  0  0 55  0  0
  -11.1794   -6.4760    1.7106 C   0  0  0  0  0  0  0  0  0 56  0  0
   -8.6792   -5.3982    1.3665 C   0  0  0  0  0  0  0  0  0 57  0  0
   -8.4069   -8.3914   -0.6919 O   0  0  0  0  0  0  0  0  0 58  0  0
   -7.6000   -9.1670   -1.5400 C   0  0  0  0  0  0  0  0  0 59  0  0
   -3.0324   -2.3741    0.7423 S   0  0  0  0  0  0  0  0  0 60  0  0
   -1.0359    1.0411    1.6794 C   0  0  0  0  0  0  0  0  0 61  0  0
   -1.9740    1.8242    2.4277 N   0  0  0  0  0  0  0  0  0 62  0  0
   -1.1800    3.3293    2.7193 S   0  0  0  0  0  0  0  0  0 63  0  0
    0.3079    2.9175    1.8870 N   0  0  0  0  0  0  0  0  0 64  0  0
    0.0920    1.5881    1.4151 C   0  0  0  0  0  0  0  0  0 65  0  0
    5.2527    5.3968   -0.2938 C   0  0  0  0  0  0  0  0  0 66  0  0
    7.8539   10.7371   -0.9084 H   0  0  0  0  0  0  0  0  0  0  0  0
    9.3711   10.6871    0.0750 H   0  0  0  0  0  0  0  0  0  0  0  0
    9.4169   10.3652   -1.7090 H   0  0  0  0  0  0  0  0  0  0  0  0
    6.1684    8.0213   -0.7699 H   0  0  0  0  0  0  0  0  0  0  0  0
    9.4649    4.7022    0.7534 H   0  0  0  0  0  0  0  0  0  0  0  0
   12.4752    6.7246    0.4153 H   0  0  0  0  0  0  0  0  0  0  0  0
   11.5764    6.2780    1.8829 H   0  0  0  0  0  0  0  0  0  0  0  0
   11.3872    5.2601    0.4522 H   0  0  0  0  0  0  0  0  0  0  0  0
    7.2732    3.0610    0.7138 H   0  0  0  0  0  0  0  0  0  0  0  0
    5.1670   -0.4048   -1.9238 H   0  0  0  0  0  0  0  0  0  0  0  0
    5.7585   -0.7649   -0.2789 H   0  0  0  0  0  0  0  0  0  0  0  0
    8.0010   -0.0702   -0.8225 H   0  0  0  0  0  0  0  0  0  0  0  0
    7.5371   -1.5039   -1.7253 H   0  0  0  0  0  0  0  0  0  0  0  0
    5.9444    0.5750   -3.8539 H   0  0  0  0  0  0  0  0  0  0  0  0
    7.5275    0.7939   -4.6885 H   0  0  0  0  0  0  0  0  0  0  0  0
    8.0131   -1.4491   -4.8036 H   0  0  0  0  0  0  0  0  0  0  0  0
    6.3788   -1.2040   -5.4319 H   0  0  0  0  0  0  0  0  0  0  0  0
    5.7256   -3.4094   -5.0821 H   0  0  0  0  0  0  0  0  0  0  0  0
    5.9214   -4.1400   -3.4484 H   0  0  0  0  0  0  0  0  0  0  0  0
    8.1787   -3.2929   -5.3283 H   0  0  0  0  0  0  0  0  0  0  0  0
    8.3597   -3.9031   -3.5975 H   0  0  0  0  0  0  0  0  0  0  0  0
    9.0141   -6.6239   -5.7385 H   0  0  0  0  0  0  0  0  0  0  0  0
    9.5996   -5.4594   -4.4112 H   0  0  0  0  0  0  0  0  0  0  0  0
    9.3319   -4.8585   -6.0657 H   0  0  0  0  0  0  0  0  0  0  0  0
    3.4566   -0.1297   -0.3805 H   0  0  0  0  0  0  0  0  0  0  0  0
    1.5828   -0.9099   -0.3053 H   0  0  0  0  0  0  0  0  0  0  0  0
   -0.5230   -1.9288    0.1876 H   0  0  0  0  0  0  0  0  0  0  0  0
   -3.7453    0.3591    2.8903 H   0  0  0  0  0  0  0  0  0  0  0  0
   -7.3037   -0.6399    4.3533 H   0  0  0  0  0  0  0  0  0  0  0  0
   -5.6345   -0.2073    4.6836 H   0  0  0  0  0  0  0  0  0  0  0  0
   -5.6902    1.5876    2.8339 H   0  0  0  0  0  0  0  0  0  0  0  0
   -7.3856    1.1495    2.5245 H   0  0  0  0  0  0  0  0  0  0  0  0
   -8.2099    0.8005    5.3240 H   0  0  0  0  0  0  0  0  0  0  0  0
   -9.0127    1.7255    3.9639 H   0  0  0  0  0  0  0  0  0  0  0  0
   -9.7954    2.3812    6.0867 H   0  0  0  0  0  0  0  0  0  0  0  0
   -9.0324    3.7496    5.1439 H   0  0  0  0  0  0  0  0  0  0  0  0
   -8.7302    2.0919    8.4704 H   0  0  0  0  0  0  0  0  0  0  0  0
   -7.2177    3.0754    8.6558 H   0  0  0  0  0  0  0  0  0  0  0  0
   -6.7590    0.7855    8.9376 H   0  0  0  0  0  0  0  0  0  0  0  0
   -7.4108    0.2952    7.3824 H   0  0  0  0  0  0  0  0  0  0  0  0
   -3.9870    0.1234    7.0871 H   0  0  0  0  0  0  0  0  0  0  0  0
   -5.6083   -0.6922    6.9906 H   0  0  0  0  0  0  0  0  0  0  0  0
   -4.9544   -0.1875    8.5597 H   0  0  0  0  0  0  0  0  0  0  0  0
   -4.4467   -4.8800   -0.0916 H   0  0  0  0  0  0  0  0  0  0  0  0
   -7.3685   -2.9834    2.3699 H   0  0  0  0  0  0  0  0  0  0  0  0
   -6.0351   -7.1344   -0.8743 H   0  0  0  0  0  0  0  0  0  0  0  0
  -12.1174   -7.0579    1.7380 H   0  0  0  0  0  0  0  0  0  0  0  0
  -11.4563   -5.4719    1.3031 H   0  0  0  0  0  0  0  0  0  0  0  0
  -10.7740   -6.3000    2.7224 H   0  0  0  0  0  0  0  0  0  0  0  0
   -9.3738   -4.8723    2.0033 H   0  0  0  0  0  0  0  0  0  0  0  0
   -6.8852   -8.5840   -2.1452 H   0  0  0  0  0  0  0  0  0  0  0  0
   -8.2712   -9.6969   -2.2556 H   0  0  0  0  0  0  0  0  0  0  0  0
   -7.0306   -9.8944   -0.9162 H   0  0  0  0  0  0  0  0  0  0  0  0
    4.3484    5.8748   -0.6025 H   0  0  0  0  0  0  0  0  0  0  0  0
  1  2  1  0
  2  3  1  0
  3  4  2  0
  4  5  1  0
  5  6  2  0
  6  7  1  0
  7  8  2  0
  8  9  1  0
  9 10  1  0
  6 11  1  0
 11 12  1  0
 12 13  1  0
 13 14  2  0
 14 15  1  0
 15 16  1  0
 16 17  1  0
 17 18  1  0
 18 19  1  0
 19 20  1  0
 20 21  1  0
 21 22  1  0
 22 23  1  0
 23 24  1  0
 24 25  1  0
 14 26  1  0
 26 27  2  0
 27 28  1  0
 27 29  1  0
 29 30  2  0
 30 31  1  0
 31 32  2  0
 32 33  1  0
 33 34  2  0
 34 35  1  0
 35 36  1  0
 36 37  1  0
 37 38  1  0
 38 39  1  0
 39 40  1  0
 40 41  1  0
 41 42  1  0
 42 43  1  0
 43 44  1  0
 44 45  1  0
 45 46  1  0
 35 47  2  0
 47 48  1  0
 48 49  1  0
 48 50  2  0
 50 51  1  0
 51 52  2  0
 52 53  1  0
 53 54  2  0
 54 55  1  0
 55 56  1  0
 56 57  1  0
 55 58  2  0
 54 59  1  0
 59 60  1  0
 47 61  1  0
 32 62  1  0
 62 63  2  0
 63 64  1  0
 64 65  1  0
 65 66  2  0
 12 67  2  0
  8  3  1  0
 67  5  1  0
 28 13  1  0
 66 29  1  0
 61 33  1  0
 52 49  1  0
 58 51  1  0
 66 62  1  0
  1 68  1  0
  1 69  1  0
  1 70  1  0
  4 71  1  0
  7 72  1  0
 10 73  1  0
 10 74  1  0
 10 75  1  0
 11 76  1  0
 16 77  1  0
 16 78  1  0
 17 79  1  0
 17 80  1  0
 19 81  1  0
 19 82  1  0
 20 83  1  0
 20 84  1  0
 22 85  1  0
 22 86  1  0
 23 87  1  0
 23 88  1  0
 25 89  1  0
 25 90  1  0
 25 91  1  0
 26 92  1  0
 30 93  1  0
 31 94  1  0
 34 95  1  0
 37 96  1  0
 37 97  1  0
 38 98  1  0
 38 99  1  0
 40100  1  0
 40101  1  0
 41102  1  0
 41103  1  0
 43104  1  0
 43105  1  0
 44106  1  0
 44107  1  0
 46108  1  0
 46109  1  0
 46110  1  0
 49111  1  0
 50112  1  0
 53113  1  0
 57114  1  0
 57115  1  0
 57116  1  0
 58117  1  0
 60118  1  0
 60119  1  0
 60120  1  0
 67121  1  0
M  END
