
     RDKit          3D

121128  0  0  0  0  0  0  0  0999 V2000
   -8.3447   -1.6541   -8.3326 C   0  0  0  0  0  0  0  0  0  0  0  0
   -9.3359   -1.7729   -7.3262 O   0  0  0  0  0  0  0  0  0  1  0  0
   -8.9023   -1.6888   -6.0030 C   0  0  0  0  0  0  0  0  0  2  0  0
   -7.5840   -1.5393   -5.7245 C   0  0  0  0  0  0  0  0  0  3  0  0
   -7.1861   -1.4479   -4.4294 C   0  0  0  0  0  0  0  0  0  4  0  0
   -8.0884   -1.5030   -3.3954 C   0  0  0  0  0  0  0  0  0  5  0  0
   -9.4118   -1.6555   -3.7157 C   0  0  0  0  0  0  0  0  0  6  0  0
   -9.9129   -1.7576   -4.9842 C   0  0  0  0  0  0  0  0  0  7  0  0
  -11.1093   -1.9034   -5.3378 O   0  0  0  0  0  0  0  0  0  8  0  0
  -12.4269   -2.0546   -5.3591 C   0  0  0  0  0  0  0  0  0  9  0  0
   -7.4896   -1.3745   -2.2034 N   0  0  0  0  0  0  0  0  0 10  0  0
   -6.1776   -1.2389   -2.4271 C   0  0  0  0  0  0  0  0  0 11  0  0
   -5.0801   -0.9896   -1.4914 C   0  0  0  0  0  0  0  0  0 12  0  0
   -5.2020   -0.6079   -0.1131 C   0  0  0  0  0  0  0  0  0 13  0  0
   -6.4299   -0.4707    0.3647 O   0  0  0  0  0  0  0  0  0 14  0  0
   -7.2623   -0.1976    1.3156 C   0  0  0  0  0  0  0  0  0 15  0  0
   -7.2844    1.2133    1.9028 C   0  0  0  0  0  0  0  0  0 16  0  0
   -7.5801    2.0917    0.8794 O   0  0  0  0  0  0  0  0  0 17  0  0
   -7.8219    3.3728    1.2711 C   0  0  0  0  0  0  0  0  0 18  0  0
   -9.1016    3.4816    2.0899 C   0  0  0  0  0  0  0  0  0 19  0  0
   -9.4061    4.7459    2.5021 O   0  0  0  0  0  0  0  0  0 20  0  0
   -8.5488    5.3995    3.3218 C   0  0  0  0  0  0  0  0  0 21  0  0
   -8.2975    4.8018    4.6720 C   0  0  0  0  0  0  0  0  0 22  0  0
   -7.7398    3.5349    4.5798 O   0  0  0  0  0  0  0  0  0 23  0  0
   -7.5519    3.0318    5.8647 C   0  0  0  0  0  0  0  0  0 24  0  0
   -4.0056   -0.4543    0.4968 C   0  0  0  0  0  0  0  0  0 25  0  0
   -2.8564   -0.6537   -0.1416 C   0  0  0  0  0  0  0  0  0 26  0  0
   -3.3779   -1.0949   -1.7726 S   0  0  0  0  0  0  0  0  0 27  0  0
   -1.4497   -0.7143    0.1729 C   0  0  0  0  0  0  0  0  0 28  0  0
   -1.0273   -1.7371    0.9984 C   0  0  0  0  0  0  0  0  0 29  0  0
    0.2600   -1.9903    1.3869 C   0  0  0  0  0  0  0  0  0 30  0  0
    1.2469   -1.0676    0.8516 C   0  0  0  0  0  0  0  0  0 31  0  0
    2.5819   -1.2804    1.2997 C   0  0  0  0  0  0  0  0  0 32  0  0
    3.8002   -0.7305    1.0405 C   0  0  0  0  0  0  0  0  0 33  0  0
    4.8855   -1.1775    1.6722 C   0  0  0  0  0  0  0  0  0 34  0  0
    6.1864   -0.7178    1.5016 O   0  0  0  0  0  0  0  0  0 35  0  0
    6.7552    0.1871    0.6604 C   0  0  0  0  0  0  0  0  0 36  0  0
    6.5982   -0.3629   -0.7999 C   0  0  0  0  0  0  0  0  0 37  0  0
    7.2407   -1.5676   -0.7449 O   0  0  0  0  0  0  0  0  0 38  0  0
    7.2447   -2.3171   -1.8417 C   0  0  0  0  0  0  0  0  0 39  0  0
    8.0090   -1.7051   -3.0095 C   0  0  0  0  0  0  0  0  0 40  0  0
    9.3225   -1.4854   -2.6839 O   0  0  0  0  0  0  0  0  0 41  0  0
   10.1503   -1.0289   -3.6711 C   0  0  0  0  0  0  0  0  0 42  0  0
   10.4223   -1.9538   -4.8041 C   0  0  0  0  0  0  0  0  0 43  0  0
    9.3336   -2.3629   -5.5184 O   0  0  0  0  0  0  0  0  0 44  0  0
    9.7294   -3.2426   -6.5137 C   0  0  0  0  0  0  0  0  0 45  0  0
    4.6888   -2.2099    2.5948 C   0  0  0  0  0  0  0  0  0 46  0  0
    5.6109   -2.7967    3.5375 C   0  0  0  0  0  0  0  0  0 47  0  0
    5.8963   -4.0652    3.8188 N   0  0  0  0  0  0  0  0  0 48  0  0
    6.3040   -2.0565    4.4727 C   0  0  0  0  0  0  0  0  0 49  0  0
    7.0083   -2.8868    5.3223 C   0  0  0  0  0  0  0  0  0 50  0  0
    6.7308   -4.1729    4.8765 C   0  0  0  0  0  0  0  0  0 51  0  0
    7.3292   -5.2172    5.5441 C   0  0  0  0  0  0  0  0  0 52  0  0
    8.1739   -5.0773    6.6219 C   0  0  0  0  0  0  0  0  0 53  0  0
    8.4055   -3.7570    7.0306 C   0  0  0  0  0  0  0  0  0 54  0  0
    9.2309   -3.4768    8.1178 O   0  0  0  0  0  0  0  0  0 55  0  0
    9.4263   -2.1337    8.5220 C   0  0  0  0  0  0  0  0  0 56  0  0
    7.8421   -2.6646    6.4034 C   0  0  0  0  0  0  0  0  0 57  0  0
    8.7829   -6.1172    7.2816 O   0  0  0  0  0  0  0  0  0 58  0  0
    8.5560   -7.4354    6.7782 C   0  0  0  0  0  0  0  0  0 59  0  0
    3.0095   -2.5459    2.5580 S   0  0  0  0  0  0  0  0  0 60  0  0
    0.7734   -0.0819    0.0420 C   0  0  0  0  0  0  0  0  0 61  0  0
    1.7397    0.8391   -0.5549 N   0  0  0  0  0  0  0  0  0 62  0  0
    0.8909    1.9068   -1.5321 S   0  0  0  0  0  0  0  0  0 63  0  0
   -0.7601    1.1545   -1.1685 N   0  0  0  0  0  0  0  0  0 64  0  0
   -0.4533    0.1180   -0.2965 C   0  0  0  0  0  0  0  0  0 65  0  0
   -5.9489   -1.2816   -3.7995 C   0  0  0  0  0  0  0  0  0 66  0  0
   -8.7334   -1.7801   -9.3607 H   0  0  0  0  0  0  0  0  0  0  0  0
   -7.9209   -0.6134   -8.1644 H   0  0  0  0  0  0  0  0  0  0  0  0
   -7.5095   -2.3471   -8.1769 H   0  0  0  0  0  0  0  0  0  0  0  0
   -6.8118   -1.4951   -6.4873 H   0  0  0  0  0  0  0  0  0  0  0  0
  -10.1796   -1.7017   -2.9132 H   0  0  0  0  0  0  0  0  0  0  0  0
  -13.0328   -1.1716   -5.6135 H   0  0  0  0  0  0  0  0  0  0  0  0
  -12.6484   -2.8501   -6.1979 H   0  0  0  0  0  0  0  0  0  0  0  0
  -12.9246   -2.5657   -4.4811 H   0  0  0  0  0  0  0  0  0  0  0  0
   -7.8927   -1.3744   -1.2221 H   0  0  0  0  0  0  0  0  0  0  0  0
   -7.1948   -0.8519    2.2618 H   0  0  0  0  0  0  0  0  0  0  0  0
   -8.3548   -0.3724    1.0026 H   0  0  0  0  0  0  0  0  0  0  0  0
   -6.2685    1.4844    2.2636 H   0  0  0  0  0  0  0  0  0  0  0  0
   -8.0275    1.2190    2.6945 H   0  0  0  0  0  0  0  0  0  0  0  0
   -7.8887    4.0760    0.4279 H   0  0  0  0  0  0  0  0  0  0  0  0
   -7.0093    3.7609    1.9507 H   0  0  0  0  0  0  0  0  0  0  0  0
   -9.1092    2.8034    2.9583 H   0  0  0  0  0  0  0  0  0  0  0  0
   -9.9465    3.1685    1.3996 H   0  0  0  0  0  0  0  0  0  0  0  0
   -8.9435    6.4370    3.4628 H   0  0  0  0  0  0  0  0  0  0  0  0
   -7.5551    5.5314    2.8029 H   0  0  0  0  0  0  0  0  0  0  0  0
   -9.2817    4.7474    5.2452 H   0  0  0  0  0  0  0  0  0  0  0  0
   -7.5944    5.4690    5.2015 H   0  0  0  0  0  0  0  0  0  0  0  0
   -6.8703    3.7524    6.3826 H   0  0  0  0  0  0  0  0  0  0  0  0
   -7.0593    2.0325    5.8513 H   0  0  0  0  0  0  0  0  0  0  0  0
   -8.5142    2.9363    6.4460 H   0  0  0  0  0  0  0  0  0  0  0  0
   -4.0004   -0.1428    1.5897 H   0  0  0  0  0  0  0  0  0  0  0  0
   -1.7706   -2.4491    1.4349 H   0  0  0  0  0  0  0  0  0  0  0  0
    0.5423   -2.7813    2.0224 H   0  0  0  0  0  0  0  0  0  0  0  0
    3.8496    0.1158    0.3016 H   0  0  0  0  0  0  0  0  0  0  0  0
    7.8677    0.2135    0.7862 H   0  0  0  0  0  0  0  0  0  0  0  0
    6.3479    1.2114    0.6265 H   0  0  0  0  0  0  0  0  0  0  0  0
    5.5686   -0.5021   -1.0851 H   0  0  0  0  0  0  0  0  0  0  0  0
    7.0679    0.3994   -1.4515 H   0  0  0  0  0  0  0  0  0  0  0  0
    7.6692   -3.3274   -1.6355 H   0  0  0  0  0  0  0  0  0  0  0  0
    6.1680   -2.4747   -2.1824 H   0  0  0  0  0  0  0  0  0  0  0  0
    7.4941   -0.8488   -3.4659 H   0  0  0  0  0  0  0  0  0  0  0  0
    7.9759   -2.5280   -3.7898 H   0  0  0  0  0  0  0  0  0  0  0  0
   11.1400   -0.7625   -3.2029 H   0  0  0  0  0  0  0  0  0  0  0  0
    9.8000   -0.0490   -4.0984 H   0  0  0  0  0  0  0  0  0  0  0  0
   10.9665   -2.8344   -4.3829 H   0  0  0  0  0  0  0  0  0  0  0  0
   11.0958   -1.4084   -5.5231 H   0  0  0  0  0  0  0  0  0  0  0  0
   10.2363   -4.1088   -5.9882 H   0  0  0  0  0  0  0  0  0  0  0  0
    8.7733   -3.6407   -6.9436 H   0  0  0  0  0  0  0  0  0  0  0  0
   10.3540   -2.7462   -7.2472 H   0  0  0  0  0  0  0  0  0  0  0  0
    5.5522   -4.9220    3.3194 H   0  0  0  0  0  0  0  0  0  0  0  0
    6.3182   -0.9858    4.5753 H   0  0  0  0  0  0  0  0  0  0  0  0
    7.1073   -6.2401    5.1862 H   0  0  0  0  0  0  0  0  0  0  0  0
   10.1246   -2.0845    9.3764 H   0  0  0  0  0  0  0  0  0  0  0  0
    9.8181   -1.5546    7.6631 H   0  0  0  0  0  0  0  0  0  0  0  0
    8.4549   -1.6914    8.8888 H   0  0  0  0  0  0  0  0  0  0  0  0
    8.0183   -1.6582    6.7373 H   0  0  0  0  0  0  0  0  0  0  0  0
    9.2148   -8.1609    7.2742 H   0  0  0  0  0  0  0  0  0  0  0  0
    8.7310   -7.3806    5.6586 H   0  0  0  0  0  0  0  0  0  0  0  0
    7.5224   -7.7595    6.9241 H   0  0  0  0  0  0  0  0  0  0  0  0
   -5.0175   -1.2041   -4.3044 H   0  0  0  0  0  0  0  0  0  0  0  0
  1  2  1  0
  2  3  1  0
  3  4  2  0
  4  5  1  0
  5  6  2  0
  6  7  1  0
  7  8  2  0
  8  9  1  0
  9 10  1  0
  6 11  1  0
 11 12  1  0
 12 13  1  0
 13 14  2  0
 14 15  1  0
 15 16  1  0
 16 17  1  0
 17 18  1  0
 18 19  1  0
 19 20  1  0
 20 21  1  0
 21 22  1  0
 22 23  1  0
 23 24  1  0
 24 25  1  0
 14 26  1  0
 26 27  2  0
 27 28  1  0
 27 29  1  0
 29 30  2  0
 30 31  1  0
 31 32  2  0
 32 33  1  0
 33 34  2  0
 34 35  1  0
 35 36  1  0
 36 37  1  0
 37 38  1  0
 38 39  1  0
 39 40  1  0
 40 41  1  0
 41 42  1  0
 42 43  1  0
 43 44  1  0
 44 45  1  0
 45 46  1  0
 35 47  2  0
 47 48  1  0
 48 49  1  0
 48 50  2  0
 50 51  1  0
 51 52  2  0
 52 53  1  0
 53 54  2  0
 54 55  1  0
 55 56  1  0
 56 57  1  0
 55 58  2  0
 54 59  1  0
 59 60  1  0
 47 61  1  0
 32 62  1  0
 62 63  2  0
 63 64  1  0
 64 65  1  0
 65 66  2  0
 12 67  2  0
  8  3  1  0
 67  5  1  0
 28 13  1  0
 66 29  1  0
 61 33  1  0
 52 49  1  0
 58 51  1  0
 66 62  1  0
  1 68  1  0
  1 69  1  0
  1 70  1  0
  4 71  1  0
  7 72  1  0
 10 73  1  0
 10 74  1  0
 10 75  1  0
 11 76  1  0
 16 77  1  0
 16 78  1  0
 17 79  1  0
 17 80  1  0
 19 81  1  0
 19 82  1  0
 20 83  1  0
 20 84  1  0
 22 85  1  0
 22 86  1  0
 23 87  1  0
 23 88  1  0
 25 89  1  0
 25 90  1  0
 25 91  1  0
 26 92  1  0
 30 93  1  0
 31 94  1  0
 34 95  1  0
 37 96  1  0
 37 97  1  0
 38 98  1  0
 38 99  1  0
 40100  1  0
 40101  1  0
 41102  1  0
 41103  1  0
 43104  1  0
 43105  1  0
 44106  1  0
 44107  1  0
 46108  1  0
 46109  1  0
 46110  1  0
 49111  1  0
 50112  1  0
 53113  1  0
 57114  1  0
 57115  1  0
 57116  1  0
 58117  1  0
 60118  1  0
 60119  1  0
 60120  1  0
 67121  1  0
M  END
