
     RDKit          3D

121128  0  0  0  0  0  0  0  0999 V2000
  -12.0022   -6.6020   -0.1042 C   0  0  0  0  0  0  0  0  0  0  0  0
  -10.9497   -7.3590    0.4833 O   0  0  0  0  0  0  0  0  0  1  0  0
   -9.6646   -6.8502    0.5732 C   0  0  0  0  0  0  0  0  0  2  0  0
   -9.4097   -5.5829    0.0825 C   0  0  0  0  0  0  0  0  0  3  0  0
   -8.1085   -5.0924    0.1841 C   0  0  0  0  0  0  0  0  0  4  0  0
   -7.0875   -5.8244    0.7507 C   0  0  0  0  0  0  0  0  0  5  0  0
   -7.3887   -7.0898    1.2294 C   0  0  0  0  0  0  0  0  0  6  0  0
   -8.6705   -7.6123    1.1465 C   0  0  0  0  0  0  0  0  0  7  0  0
   -9.0085   -8.8689    1.6123 O   0  0  0  0  0  0  0  0  0  8  0  0
   -8.0370   -9.7169    2.2171 C   0  0  0  0  0  0  0  0  0  9  0  0
   -5.9555   -5.0768    0.6968 N   0  0  0  0  0  0  0  0  0 10  0  0
   -6.2534   -3.9213    0.1193 C   0  0  0  0  0  0  0  0  0 11  0  0
   -5.3193   -2.8282   -0.1414 C   0  0  0  0  0  0  0  0  0 12  0  0
   -5.5345   -1.5795   -0.7488 C   0  0  0  0  0  0  0  0  0 13  0  0
   -6.8079   -1.2915   -1.1815 O   0  0  0  0  0  0  0  0  0 14  0  0
   -7.3556   -0.2005   -1.7569 C   0  0  0  0  0  0  0  0  0 15  0  0
   -7.4794    1.0733   -0.9553 C   0  0  0  0  0  0  0  0  0 16  0  0
   -6.3692    1.6453   -0.4692 O   0  0  0  0  0  0  0  0  0 17  0  0
   -6.4558    2.7833    0.2446 C   0  0  0  0  0  0  0  0  0 18  0  0
   -7.0107    4.0007   -0.4103 C   0  0  0  0  0  0  0  0  0 19  0  0
   -8.2877    3.9588   -0.8703 O   0  0  0  0  0  0  0  0  0 20  0  0
   -9.2977    3.7924    0.0214 C   0  0  0  0  0  0  0  0  0 21  0  0
   -9.5241    4.8575    1.0371 C   0  0  0  0  0  0  0  0  0 22  0  0
   -9.8389    6.0802    0.5311 O   0  0  0  0  0  0  0  0  0 23  0  0
   -8.9649    6.7285   -0.2740 C   0  0  0  0  0  0  0  0  0 24  0  0
   -4.4241   -0.8114   -0.8326 C   0  0  0  0  0  0  0  0  0 25  0  0
   -3.2558   -1.2315   -0.3702 C   0  0  0  0  0  0  0  0  0 26  0  0
   -3.5575   -2.8331    0.2747 S   0  0  0  0  0  0  0  0  0 27  0  0
   -1.9038   -0.6900   -0.2964 C   0  0  0  0  0  0  0  0  0 28  0  0
   -0.8850   -1.4063    0.2935 C   0  0  0  0  0  0  0  0  0 29  0  0
    0.3980   -0.9358    0.3714 C   0  0  0  0  0  0  0  0  0 30  0  0
    0.6876    0.3048   -0.1606 C   0  0  0  0  0  0  0  0  0 31  0  0
    2.0025    0.8051   -0.0839 C   0  0  0  0  0  0  0  0  0 32  0  0
    3.0988    0.2858    0.4877 C   0  0  0  0  0  0  0  0  0 33  0  0
    4.2559    0.9459    0.4447 C   0  0  0  0  0  0  0  0  0 34  0  0
    5.4571    0.4792    1.0177 O   0  0  0  0  0  0  0  0  0 35  0  0
    5.5873   -0.7305    1.6976 C   0  0  0  0  0  0  0  0  0 36  0  0
    7.0130   -0.9387    2.2068 C   0  0  0  0  0  0  0  0  0 37  0  0
    7.1055   -2.1372    2.8656 O   0  0  0  0  0  0  0  0  0 38  0  0
    8.3040   -2.5432    3.3285 C   0  0  0  0  0  0  0  0  0 39  0  0
    9.3539   -3.1731    2.5202 C   0  0  0  0  0  0  0  0  0 40  0  0
    9.9307   -2.6665    1.4309 O   0  0  0  0  0  0  0  0  0 41  0  0
    9.3176   -2.7845    0.2079 C   0  0  0  0  0  0  0  0  0 42  0  0
   10.0964   -2.0673   -0.8661 C   0  0  0  0  0  0  0  0  0 43  0  0
   11.3637   -2.5037   -1.0689 O   0  0  0  0  0  0  0  0  0 44  0  0
   12.2502   -2.4269   -0.0342 C   0  0  0  0  0  0  0  0  0 45  0  0
    4.2600    2.1812   -0.2157 C   0  0  0  0  0  0  0  0  0 46  0  0
    5.4107    3.0950   -0.4028 C   0  0  0  0  0  0  0  0  0 47  0  0
    5.3366    4.2485   -1.0644 N   0  0  0  0  0  0  0  0  0 48  0  0
    6.6697    2.9016    0.0499 C   0  0  0  0  0  0  0  0  0 49  0  0
    7.4416    3.9873   -0.3423 C   0  0  0  0  0  0  0  0  0 50  0  0
    6.5818    4.8146   -1.0381 C   0  0  0  0  0  0  0  0  0 51  0  0
    7.1101    5.9831   -1.5462 C   0  0  0  0  0  0  0  0  0 52  0  0
    8.4488    6.2854   -1.3504 C   0  0  0  0  0  0  0  0  0 53  0  0
    9.3032    5.4490   -0.6507 C   0  0  0  0  0  0  0  0  0 54  0  0
   10.6442    5.7485   -0.4528 O   0  0  0  0  0  0  0  0  0 55  0  0
   11.3956    4.8015    0.2827 C   0  0  0  0  0  0  0  0  0 56  0  0
    8.7756    4.2800   -0.1420 C   0  0  0  0  0  0  0  0  0 57  0  0
    9.0135    7.4551   -1.8498 O   0  0  0  0  0  0  0  0  0 58  0  0
    8.3627    8.4420   -2.5808 C   0  0  0  0  0  0  0  0  0 59  0  0
    2.6189    2.3883   -0.7657 S   0  0  0  0  0  0  0  0  0 60  0  0
   -0.3508    0.9984   -0.7438 C   0  0  0  0  0  0  0  0  0 61  0  0
   -0.1314    2.2949   -1.3180 N   0  0  0  0  0  0  0  0  0 62  0  0
   -1.5956    2.8304   -1.9247 S   0  0  0  0  0  0  0  0  0 63  0  0
   -2.5545    1.3627   -1.4438 N   0  0  0  0  0  0  0  0  0 64  0  0
   -1.5469    0.5553   -0.8144 C   0  0  0  0  0  0  0  0  0 65  0  0
   -7.5733   -3.8910   -0.2123 C   0  0  0  0  0  0  0  0  0 66  0  0
  -12.9723   -7.1114    0.0390 H   0  0  0  0  0  0  0  0  0  0  0  0
  -11.8204   -6.4583   -1.1917 H   0  0  0  0  0  0  0  0  0  0  0  0
  -12.0657   -5.6070    0.3860 H   0  0  0  0  0  0  0  0  0  0  0  0
  -10.1984   -4.9980   -0.3638 H   0  0  0  0  0  0  0  0  0  0  0  0
   -6.6027   -7.6745    1.6748 H   0  0  0  0  0  0  0  0  0  0  0  0
   -8.5412  -10.5359    2.7449 H   0  0  0  0  0  0  0  0  0  0  0  0
   -7.3956   -9.1708    2.9195 H   0  0  0  0  0  0  0  0  0  0  0  0
   -7.4021  -10.0882    1.3726 H   0  0  0  0  0  0  0  0  0  0  0  0
   -5.0435   -5.4004    1.0581 H   0  0  0  0  0  0  0  0  0  0  0  0
   -6.8505    0.0464   -2.7540 H   0  0  0  0  0  0  0  0  0  0  0  0
   -8.4030   -0.4647   -2.0854 H   0  0  0  0  0  0  0  0  0  0  0  0
   -7.9901    1.8208   -1.6306 H   0  0  0  0  0  0  0  0  0  0  0  0
   -8.1560    0.8330   -0.0900 H   0  0  0  0  0  0  0  0  0  0  0  0
   -6.9708    2.5415    1.2091 H   0  0  0  0  0  0  0  0  0  0  0  0
   -5.4109    3.0589    0.5699 H   0  0  0  0  0  0  0  0  0  0  0  0
   -6.3594    4.1665   -1.3302 H   0  0  0  0  0  0  0  0  0  0  0  0
   -6.7648    4.9260    0.1982 H   0  0  0  0  0  0  0  0  0  0  0  0
  -10.2521    3.7722   -0.6038 H   0  0  0  0  0  0  0  0  0  0  0  0
   -9.3305    2.7630    0.4990 H   0  0  0  0  0  0  0  0  0  0  0  0
   -8.7110    4.9019    1.8044 H   0  0  0  0  0  0  0  0  0  0  0  0
  -10.4239    4.5339    1.6518 H   0  0  0  0  0  0  0  0  0  0  0  0
   -8.0261    6.8978    0.2947 H   0  0  0  0  0  0  0  0  0  0  0  0
   -8.7606    6.1667   -1.1805 H   0  0  0  0  0  0  0  0  0  0  0  0
   -9.4355    7.7199   -0.5441 H   0  0  0  0  0  0  0  0  0  0  0  0
   -4.4994    0.1953   -1.3397 H   0  0  0  0  0  0  0  0  0  0  0  0
   -1.0469   -2.4035    0.7374 H   0  0  0  0  0  0  0  0  0  0  0  0
    1.1792   -1.5165    0.8392 H   0  0  0  0  0  0  0  0  0  0  0  0
    3.0310   -0.7179    1.0064 H   0  0  0  0  0  0  0  0  0  0  0  0
    4.9357   -0.8380    2.5670 H   0  0  0  0  0  0  0  0  0  0  0  0
    5.4066   -1.5425    0.9569 H   0  0  0  0  0  0  0  0  0  0  0  0
    7.7901   -0.7912    1.4779 H   0  0  0  0  0  0  0  0  0  0  0  0
    7.1646   -0.1452    3.0294 H   0  0  0  0  0  0  0  0  0  0  0  0
    8.0857   -3.3212    4.1695 H   0  0  0  0  0  0  0  0  0  0  0  0
    8.8006   -1.7051    3.9484 H   0  0  0  0  0  0  0  0  0  0  0  0
   10.1797   -3.4573    3.2806 H   0  0  0  0  0  0  0  0  0  0  0  0
    8.9607   -4.2410    2.2856 H   0  0  0  0  0  0  0  0  0  0  0  0
    9.3615   -3.9042   -0.0891 H   0  0  0  0  0  0  0  0  0  0  0  0
    8.2844   -2.4927    0.2192 H   0  0  0  0  0  0  0  0  0  0  0  0
   10.0999   -0.9597   -0.6945 H   0  0  0  0  0  0  0  0  0  0  0  0
    9.5466   -2.1757   -1.8492 H   0  0  0  0  0  0  0  0  0  0  0  0
   12.3513   -1.3577    0.3125 H   0  0  0  0  0  0  0  0  0  0  0  0
   13.2668   -2.7089   -0.4458 H   0  0  0  0  0  0  0  0  0  0  0  0
   12.0562   -3.0732    0.8168 H   0  0  0  0  0  0  0  0  0  0  0  0
    4.5327    4.7098   -1.5408 H   0  0  0  0  0  0  0  0  0  0  0  0
    7.0737    2.0885    0.6133 H   0  0  0  0  0  0  0  0  0  0  0  0
    6.4988    6.6632   -2.0922 H   0  0  0  0  0  0  0  0  0  0  0  0
   12.4651    5.0992    0.3295 H   0  0  0  0  0  0  0  0  0  0  0  0
   10.9853    4.7629    1.3027 H   0  0  0  0  0  0  0  0  0  0  0  0
   11.3650    3.8401   -0.2490 H   0  0  0  0  0  0  0  0  0  0  0  0
    9.3994    3.5900    0.4133 H   0  0  0  0  0  0  0  0  0  0  0  0
    8.3404    8.2514   -3.6725 H   0  0  0  0  0  0  0  0  0  0  0  0
    7.3241    8.5404   -2.1989 H   0  0  0  0  0  0  0  0  0  0  0  0
    8.8603    9.4136   -2.3331 H   0  0  0  0  0  0  0  0  0  0  0  0
   -8.1351   -3.1195   -0.6856 H   0  0  0  0  0  0  0  0  0  0  0  0
  1  2  1  0
  2  3  1  0
  3  4  2  0
  4  5  1  0
  5  6  2  0
  6  7  1  0
  7  8  2  0
  8  9  1  0
  9 10  1  0
  6 11  1  0
 11 12  1  0
 12 13  1  0
 13 14  2  0
 14 15  1  0
 15 16  1  0
 16 17  1  0
 17 18  1  0
 18 19  1  0
 19 20  1  0
 20 21  1  0
 21 22  1  0
 22 23  1  0
 23 24  1  0
 24 25  1  0
 14 26  1  0
 26 27  2  0
 27 28  1  0
 27 29  1  0
 29 30  2  0
 30 31  1  0
 31 32  2  0
 32 33  1  0
 33 34  2  0
 34 35  1  0
 35 36  1  0
 36 37  1  0
 37 38  1  0
 38 39  1  0
 39 40  1  0
 40 41  1  0
 41 42  1  0
 42 43  1  0
 43 44  1  0
 44 45  1  0
 45 46  1  0
 35 47  2  0
 47 48  1  0
 48 49  1  0
 48 50  2  0
 50 51  1  0
 51 52  2  0
 52 53  1  0
 53 54  2  0
 54 55  1  0
 55 56  1  0
 56 57  1  0
 55 58  2  0
 54 59  1  0
 59 60  1  0
 47 61  1  0
 32 62  1  0
 62 63  2  0
 63 64  1  0
 64 65  1  0
 65 66  2  0
 12 67  2  0
  8  3  1  0
 67  5  1  0
 28 13  1  0
 66 29  1  0
 61 33  1  0
 52 49  1  0
 58 51  1  0
 66 62  1  0
  1 68  1  0
  1 69  1  0
  1 70  1  0
  4 71  1  0
  7 72  1  0
 10 73  1  0
 10 74  1  0
 10 75  1  0
 11 76  1  0
 16 77  1  0
 16 78  1  0
 17 79  1  0
 17 80  1  0
 19 81  1  0
 19 82  1  0
 20 83  1  0
 20 84  1  0
 22 85  1  0
 22 86  1  0
 23 87  1  0
 23 88  1  0
 25 89  1  0
 25 90  1  0
 25 91  1  0
 26 92  1  0
 30 93  1  0
 31 94  1  0
 34 95  1  0
 37 96  1  0
 37 97  1  0
 38 98  1  0
 38 99  1  0
 40100  1  0
 40101  1  0
 41102  1  0
 41103  1  0
 43104  1  0
 43105  1  0
 44106  1  0
 44107  1  0
 46108  1  0
 46109  1  0
 46110  1  0
 49111  1  0
 50112  1  0
 53113  1  0
 57114  1  0
 57115  1  0
 57116  1  0
 58117  1  0
 60118  1  0
 60119  1  0
 60120  1  0
 67121  1  0
M  END
