
     RDKit          3D

121128  0  0  0  0  0  0  0  0999 V2000
   -7.0916   -9.7612    0.7290 C   0  0  0  0  0  0  0  0  0  0  0  0
   -8.0730   -8.7740    0.5201 O   0  0  0  0  0  0  0  0  0  1  0  0
   -7.6933   -7.4959    0.2124 C   0  0  0  0  0  0  0  0  0  2  0  0
   -6.3480   -7.1388    0.0979 C   0  0  0  0  0  0  0  0  0  3  0  0
   -5.9720   -5.8467   -0.2131 C   0  0  0  0  0  0  0  0  0  4  0  0
   -6.9876   -4.9404   -0.4026 C   0  0  0  0  0  0  0  0  0  5  0  0
   -8.3318   -5.2662   -0.2957 C   0  0  0  0  0  0  0  0  0  6  0  0
   -8.6947   -6.5610    0.0168 C   0  0  0  0  0  0  0  0  0  7  0  0
  -10.0183   -6.9041    0.1290 O   0  0  0  0  0  0  0  0  0  8  0  0
  -11.0844   -5.9946   -0.0578 C   0  0  0  0  0  0  0  0  0  9  0  0
   -6.3827   -3.7449   -0.6907 N   0  0  0  0  0  0  0  0  0 10  0  0
   -5.0628   -3.8750   -0.6855 C   0  0  0  0  0  0  0  0  0 11  0  0
   -4.1132   -2.8003   -0.9432 C   0  0  0  0  0  0  0  0  0 12  0  0
   -4.1130   -1.8965   -1.9927 C   0  0  0  0  0  0  0  0  0 13  0  0
   -5.1053   -1.9779   -2.9552 O   0  0  0  0  0  0  0  0  0 14  0  0
   -5.4417   -1.2833   -4.0620 C   0  0  0  0  0  0  0  0  0 15  0  0
   -5.8532    0.1831   -3.8150 C   0  0  0  0  0  0  0  0  0 16  0  0
   -6.9346    0.0877   -2.9580 O   0  0  0  0  0  0  0  0  0 17  0  0
   -7.4865    1.2576   -2.5595 C   0  0  0  0  0  0  0  0  0 18  0  0
   -8.0815    2.0554   -3.7343 C   0  0  0  0  0  0  0  0  0 19  0  0
   -8.6071    3.1897   -3.2085 O   0  0  0  0  0  0  0  0  0 20  0  0
   -9.1948    4.0871   -4.0428 C   0  0  0  0  0  0  0  0  0 21  0  0
  -10.3736    3.5274   -4.7849 C   0  0  0  0  0  0  0  0  0 22  0  0
  -10.0494    2.4602   -5.6044 O   0  0  0  0  0  0  0  0  0 23  0  0
  -11.1685    1.9524   -6.2431 C   0  0  0  0  0  0  0  0  0 24  0  0
   -3.1238   -0.9822   -2.0026 C   0  0  0  0  0  0  0  0  0 25  0  0
   -2.2020   -1.0106   -0.9826 C   0  0  0  0  0  0  0  0  0 26  0  0
   -2.7383   -2.3947    0.0556 S   0  0  0  0  0  0  0  0  0 27  0  0
   -1.0771   -0.1375   -0.6698 C   0  0  0  0  0  0  0  0  0 28  0  0
   -0.5918   -0.0935    0.6001 C   0  0  0  0  0  0  0  0  0 29  0  0
    0.4897    0.6950    0.9139 C   0  0  0  0  0  0  0  0  0 30  0  0
    1.0844    1.4446   -0.0675 C   0  0  0  0  0  0  0  0  0 31  0  0
    2.1752    2.3566    0.2193 C   0  0  0  0  0  0  0  0  0 32  0  0
    2.6223    2.8766    1.4213 C   0  0  0  0  0  0  0  0  0 33  0  0
    3.6228    3.7663    1.3990 C   0  0  0  0  0  0  0  0  0 34  0  0
    4.1663    4.3720    2.5235 O   0  0  0  0  0  0  0  0  0 35  0  0
    3.8796    4.2595    3.8450 C   0  0  0  0  0  0  0  0  0 36  0  0
    4.0370    2.9821    4.5796 C   0  0  0  0  0  0  0  0  0 37  0  0
    3.7324    3.0528    5.9259 O   0  0  0  0  0  0  0  0  0 38  0  0
    2.4525    3.4322    6.1782 C   0  0  0  0  0  0  0  0  0 39  0  0
    2.1570    3.5644    7.6651 C   0  0  0  0  0  0  0  0  0 40  0  0
    2.3063    2.4571    8.4306 O   0  0  0  0  0  0  0  0  0 41  0  0
    1.4684    1.4237    8.0573 C   0  0  0  0  0  0  0  0  0 42  0  0
    1.6265    0.2138    8.9675 C   0  0  0  0  0  0  0  0  0 43  0  0
    1.3313    0.5326   10.2851 O   0  0  0  0  0  0  0  0  0 44  0  0
    0.0534    0.9929   10.4814 C   0  0  0  0  0  0  0  0  0 45  0  0
    4.1425    4.1041    0.1660 C   0  0  0  0  0  0  0  0  0 46  0  0
    5.2145    5.0387   -0.1726 C   0  0  0  0  0  0  0  0  0 47  0  0
    5.9198    5.7592    0.7167 N   0  0  0  0  0  0  0  0  0 48  0  0
    5.6399    5.3230   -1.4540 C   0  0  0  0  0  0  0  0  0 49  0  0
    6.6509    6.2630   -1.3147 C   0  0  0  0  0  0  0  0  0 50  0  0
    6.7974    6.5091    0.0446 C   0  0  0  0  0  0  0  0  0 51  0  0
    7.7267    7.4096    0.5387 C   0  0  0  0  0  0  0  0  0 52  0  0
    8.5322    8.0835   -0.3530 C   0  0  0  0  0  0  0  0  0 53  0  0
    8.4140    7.8642   -1.7130 C   0  0  0  0  0  0  0  0  0 54  0  0
    9.2476    8.5701   -2.5405 O   0  0  0  0  0  0  0  0  0 55  0  0
    9.2107    8.4257   -3.9376 C   0  0  0  0  0  0  0  0  0 56  0  0
    7.4719    6.9520   -2.2053 C   0  0  0  0  0  0  0  0  0 57  0  0
    9.4554    8.9799    0.1445 O   0  0  0  0  0  0  0  0  0 58  0  0
    9.5761    9.2135    1.5341 C   0  0  0  0  0  0  0  0  0 59  0  0
    3.2281    3.1688   -1.0169 S   0  0  0  0  0  0  0  0  0 60  0  0
    0.5553    1.3619   -1.3335 C   0  0  0  0  0  0  0  0  0 61  0  0
    1.1263    2.1194   -2.4656 N   0  0  0  0  0  0  0  0  0 62  0  0
    0.2394    1.7618   -3.8178 S   0  0  0  0  0  0  0  0  0 63  0  0
   -0.9113    0.6114   -2.9655 N   0  0  0  0  0  0  0  0  0 64  0  0
   -0.4628    0.6381   -1.6923 C   0  0  0  0  0  0  0  0  0 65  0  0
   -4.7716   -5.1873   -0.3883 C   0  0  0  0  0  0  0  0  0 66  0  0
   -7.5215  -10.7703    0.8543 H   0  0  0  0  0  0  0  0  0  0  0  0
   -6.3652   -9.7255   -0.1014 H   0  0  0  0  0  0  0  0  0  0  0  0
   -6.5356   -9.4964    1.6524 H   0  0  0  0  0  0  0  0  0  0  0  0
   -5.5576   -7.8665    0.2507 H   0  0  0  0  0  0  0  0  0  0  0  0
   -9.1120   -4.5330   -0.4488 H   0  0  0  0  0  0  0  0  0  0  0  0
  -10.8789   -5.3791   -0.9555 H   0  0  0  0  0  0  0  0  0  0  0  0
  -11.0271   -5.2839    0.8192 H   0  0  0  0  0  0  0  0  0  0  0  0
  -12.0585   -6.4822   -0.0426 H   0  0  0  0  0  0  0  0  0  0  0  0
   -6.9731   -2.9003   -0.8742 H   0  0  0  0  0  0  0  0  0  0  0  0
   -4.5812   -1.2417   -4.7694 H   0  0  0  0  0  0  0  0  0  0  0  0
   -6.2599   -1.8092   -4.6060 H   0  0  0  0  0  0  0  0  0  0  0  0
   -4.9934    0.7263   -3.4514 H   0  0  0  0  0  0  0  0  0  0  0  0
   -6.1823    0.6281   -4.7968 H   0  0  0  0  0  0  0  0  0  0  0  0
   -6.6824    1.8611   -2.0806 H   0  0  0  0  0  0  0  0  0  0  0  0
   -8.2913    1.1013   -1.8174 H   0  0  0  0  0  0  0  0  0  0  0  0
   -7.2622    2.2555   -4.4563 H   0  0  0  0  0  0  0  0  0  0  0  0
   -8.8036    1.3588   -4.1861 H   0  0  0  0  0  0  0  0  0  0  0  0
   -8.4266    4.4762   -4.7734 H   0  0  0  0  0  0  0  0  0  0  0  0
   -9.5404    4.9928   -3.4450 H   0  0  0  0  0  0  0  0  0  0  0  0
  -11.1730    3.2027   -4.0501 H   0  0  0  0  0  0  0  0  0  0  0  0
  -10.8675    4.3342   -5.3666 H   0  0  0  0  0  0  0  0  0  0  0  0
  -11.6321    2.7368   -6.8625 H   0  0  0  0  0  0  0  0  0  0  0  0
  -11.8639    1.5651   -5.4674 H   0  0  0  0  0  0  0  0  0  0  0  0
  -10.8203    1.1411   -6.9424 H   0  0  0  0  0  0  0  0  0  0  0  0
   -3.0304   -0.2211   -2.7996 H   0  0  0  0  0  0  0  0  0  0  0  0
   -1.0778   -0.6992    1.3670 H   0  0  0  0  0  0  0  0  0  0  0  0
    0.8948    0.7518    1.9062 H   0  0  0  0  0  0  0  0  0  0  0  0
    2.1192    2.5397    2.3520 H   0  0  0  0  0  0  0  0  0  0  0  0
    2.7742    4.5718    3.9968 H   0  0  0  0  0  0  0  0  0  0  0  0
    4.4639    5.0385    4.4334 H   0  0  0  0  0  0  0  0  0  0  0  0
    5.1347    2.6565    4.5638 H   0  0  0  0  0  0  0  0  0  0  0  0
    3.5363    2.1039    4.1059 H   0  0  0  0  0  0  0  0  0  0  0  0
    1.7331    2.7530    5.7060 H   0  0  0  0  0  0  0  0  0  0  0  0
    2.2905    4.4674    5.7526 H   0  0  0  0  0  0  0  0  0  0  0  0
    1.0681    3.8752    7.6984 H   0  0  0  0  0  0  0  0  0  0  0  0
    2.7294    4.4605    8.0494 H   0  0  0  0  0  0  0  0  0  0  0  0
    1.8195    1.1209    7.0252 H   0  0  0  0  0  0  0  0  0  0  0  0
    0.4192    1.7132    8.0352 H   0  0  0  0  0  0  0  0  0  0  0  0
    2.6673   -0.1479    8.9269 H   0  0  0  0  0  0  0  0  0  0  0  0
    0.9628   -0.6059    8.6587 H   0  0  0  0  0  0  0  0  0  0  0  0
   -0.7534    0.2888   10.1859 H   0  0  0  0  0  0  0  0  0  0  0  0
   -0.1342    1.9649    9.9495 H   0  0  0  0  0  0  0  0  0  0  0  0
   -0.1013    1.1670   11.5878 H   0  0  0  0  0  0  0  0  0  0  0  0
    5.8217    5.7525    1.7426 H   0  0  0  0  0  0  0  0  0  0  0  0
    5.3090    4.9433   -2.4089 H   0  0  0  0  0  0  0  0  0  0  0  0
    7.8391    7.5998    1.6084 H   0  0  0  0  0  0  0  0  0  0  0  0
    9.0492    7.3830   -4.2404 H   0  0  0  0  0  0  0  0  0  0  0  0
   10.1291    8.8496   -4.4274 H   0  0  0  0  0  0  0  0  0  0  0  0
    8.3512    8.9950   -4.3860 H   0  0  0  0  0  0  0  0  0  0  0  0
    7.3678    6.7695   -3.2558 H   0  0  0  0  0  0  0  0  0  0  0  0
    8.7212    9.8315    1.8964 H   0  0  0  0  0  0  0  0  0  0  0  0
    9.6831    8.3017    2.1418 H   0  0  0  0  0  0  0  0  0  0  0  0
   10.4623    9.8925    1.6394 H   0  0  0  0  0  0  0  0  0  0  0  0
   -3.7770   -5.6275   -0.3075 H   0  0  0  0  0  0  0  0  0  0  0  0
  1  2  1  0
  2  3  1  0
  3  4  2  0
  4  5  1  0
  5  6  2  0
  6  7  1  0
  7  8  2  0
  8  9  1  0
  9 10  1  0
  6 11  1  0
 11 12  1  0
 12 13  1  0
 13 14  2  0
 14 15  1  0
 15 16  1  0
 16 17  1  0
 17 18  1  0
 18 19  1  0
 19 20  1  0
 20 21  1  0
 21 22  1  0
 22 23  1  0
 23 24  1  0
 24 25  1  0
 14 26  1  0
 26 27  2  0
 27 28  1  0
 27 29  1  0
 29 30  2  0
 30 31  1  0
 31 32  2  0
 32 33  1  0
 33 34  2  0
 34 35  1  0
 35 36  1  0
 36 37  1  0
 37 38  1  0
 38 39  1  0
 39 40  1  0
 40 41  1  0
 41 42  1  0
 42 43  1  0
 43 44  1  0
 44 45  1  0
 45 46  1  0
 35 47  2  0
 47 48  1  0
 48 49  1  0
 48 50  2  0
 50 51  1  0
 51 52  2  0
 52 53  1  0
 53 54  2  0
 54 55  1  0
 55 56  1  0
 56 57  1  0
 55 58  2  0
 54 59  1  0
 59 60  1  0
 47 61  1  0
 32 62  1  0
 62 63  2  0
 63 64  1  0
 64 65  1  0
 65 66  2  0
 12 67  2  0
  8  3  1  0
 67  5  1  0
 28 13  1  0
 66 29  1  0
 61 33  1  0
 52 49  1  0
 58 51  1  0
 66 62  1  0
  1 68  1  0
  1 69  1  0
  1 70  1  0
  4 71  1  0
  7 72  1  0
 10 73  1  0
 10 74  1  0
 10 75  1  0
 11 76  1  0
 16 77  1  0
 16 78  1  0
 17 79  1  0
 17 80  1  0
 19 81  1  0
 19 82  1  0
 20 83  1  0
 20 84  1  0
 22 85  1  0
 22 86  1  0
 23 87  1  0
 23 88  1  0
 25 89  1  0
 25 90  1  0
 25 91  1  0
 26 92  1  0
 30 93  1  0
 31 94  1  0
 34 95  1  0
 37 96  1  0
 37 97  1  0
 38 98  1  0
 38 99  1  0
 40100  1  0
 40101  1  0
 41102  1  0
 41103  1  0
 43104  1  0
 43105  1  0
 44106  1  0
 44107  1  0
 46108  1  0
 46109  1  0
 46110  1  0
 49111  1  0
 50112  1  0
 53113  1  0
 57114  1  0
 57115  1  0
 57116  1  0
 58117  1  0
 60118  1  0
 60119  1  0
 60120  1  0
 67121  1  0
M  END
