
     RDKit          3D

121128  0  0  0  0  0  0  0  0999 V2000
  -12.6146    2.6171    2.4927 C   0  0  0  0  0  0  0  0  0  0  0  0
  -12.4239    3.6584    1.5632 O   0  0  0  0  0  0  0  0  0  1  0  0
  -11.1656    3.7174    0.9245 C   0  0  0  0  0  0  0  0  0  2  0  0
  -10.2437    2.7888    1.2404 C   0  0  0  0  0  0  0  0  0  3  0  0
   -9.0132    2.8421    0.6227 C   0  0  0  0  0  0  0  0  0  4  0  0
   -8.7119    3.8113   -0.2991 C   0  0  0  0  0  0  0  0  0  5  0  0
   -9.6682    4.7410   -0.6019 C   0  0  0  0  0  0  0  0  0  6  0  0
  -10.9436    4.7570   -0.0181 C   0  0  0  0  0  0  0  0  0  7  0  0
  -11.9241    5.5767   -0.2243 O   0  0  0  0  0  0  0  0  0  8  0  0
  -12.3621    6.6566   -0.9428 C   0  0  0  0  0  0  0  0  0  9  0  0
   -7.4240    3.5731   -0.6813 N   0  0  0  0  0  0  0  0  0 10  0  0
   -6.9179    2.5241   -0.0570 C   0  0  0  0  0  0  0  0  0 11  0  0
   -5.5870    1.9278   -0.0506 C   0  0  0  0  0  0  0  0  0 12  0  0
   -5.2013    0.6711    0.4302 C   0  0  0  0  0  0  0  0  0 13  0  0
   -6.1743   -0.2043    0.8781 O   0  0  0  0  0  0  0  0  0 14  0  0
   -6.1007   -1.4719    1.3872 C   0  0  0  0  0  0  0  0  0 15  0  0
   -7.5579   -1.8815    1.6965 C   0  0  0  0  0  0  0  0  0 16  0  0
   -8.3331   -1.8563    0.5677 O   0  0  0  0  0  0  0  0  0 17  0  0
   -7.9694   -2.7190   -0.4253 C   0  0  0  0  0  0  0  0  0 18  0  0
   -8.0802   -4.1610    0.0772 C   0  0  0  0  0  0  0  0  0 19  0  0
   -7.7242   -5.0577   -0.9044 O   0  0  0  0  0  0  0  0  0 20  0  0
   -7.7921   -6.4007   -0.5514 C   0  0  0  0  0  0  0  0  0 21  0  0
   -9.1429   -6.8776   -0.1425 C   0  0  0  0  0  0  0  0  0 22  0  0
   -9.1771   -8.2149    0.1995 O   0  0  0  0  0  0  0  0  0 23  0  0
   -8.8298   -9.0026   -0.8708 C   0  0  0  0  0  0  0  0  0 24  0  0
   -3.8846    0.4232    0.4101 C   0  0  0  0  0  0  0  0  0 25  0  0
   -3.0334    1.3264   -0.0410 C   0  0  0  0  0  0  0  0  0 26  0  0
   -4.0493    2.7169   -0.5256 S   0  0  0  0  0  0  0  0  0 27  0  0
   -1.5709    1.2652   -0.0949 C   0  0  0  0  0  0  0  0  0 28  0  0
   -0.9720    0.1460    0.4018 C   0  0  0  0  0  0  0  0  0 29  0  0
    0.3951    0.0934    0.4281 C   0  0  0  0  0  0  0  0  0 30  0  0
    1.1035    1.1501   -0.0378 C   0  0  0  0  0  0  0  0  0 31  0  0
    2.5605    1.0745    0.1011 C   0  0  0  0  0  0  0  0  0 32  0  0
    3.3714    0.1449    0.7033 C   0  0  0  0  0  0  0  0  0 33  0  0
    4.6851    0.4128    0.7098 C   0  0  0  0  0  0  0  0  0 34  0  0
    5.6200   -0.4892    1.3177 O   0  0  0  0  0  0  0  0  0 35  0  0
    5.2832   -1.6781    1.9095 C   0  0  0  0  0  0  0  0  0 36  0  0
    6.4369   -2.3963    2.5245 C   0  0  0  0  0  0  0  0  0 37  0  0
    7.4717   -2.8231    1.9046 O   0  0  0  0  0  0  0  0  0 38  0  0
    8.3992   -2.3026    1.1633 C   0  0  0  0  0  0  0  0  0 39  0  0
    8.0596   -1.8806   -0.2342 C   0  0  0  0  0  0  0  0  0 40  0  0
    9.1620   -1.3399   -0.8648 O   0  0  0  0  0  0  0  0  0 41  0  0
   10.2588   -2.1215   -1.0112 C   0  0  0  0  0  0  0  0  0 42  0  0
    9.9889   -3.3797   -1.8033 C   0  0  0  0  0  0  0  0  0 43  0  0
   11.2130   -4.0872   -1.8772 O   0  0  0  0  0  0  0  0  0 44  0  0
   11.0442   -5.2616   -2.5959 C   0  0  0  0  0  0  0  0  0 45  0  0
    5.1220    1.5497    0.1376 C   0  0  0  0  0  0  0  0  0 46  0  0
    6.5436    2.0488    0.0614 C   0  0  0  0  0  0  0  0  0 47  0  0
    7.6127    1.4919    0.5947 N   0  0  0  0  0  0  0  0  0 48  0  0
    6.9063    3.1977   -0.6090 C   0  0  0  0  0  0  0  0  0 49  0  0
    8.2767    3.3009   -0.4435 C   0  0  0  0  0  0  0  0  0 50  0  0
    8.7087    2.2306    0.3100 C   0  0  0  0  0  0  0  0  0 51  0  0
   10.0542    2.1484    0.5923 C   0  0  0  0  0  0  0  0  0 52  0  0
   10.9478    3.1022    0.1387 C   0  0  0  0  0  0  0  0  0 53  0  0
   10.4855    4.1573   -0.6106 C   0  0  0  0  0  0  0  0  0 54  0  0
   11.3760    5.1112   -1.0652 O   0  0  0  0  0  0  0  0  0 55  0  0
   10.9828    6.2123   -1.8322 C   0  0  0  0  0  0  0  0  0 56  0  0
    9.1293    4.2729   -0.9152 C   0  0  0  0  0  0  0  0  0 57  0  0
   12.3063    3.0478    0.4058 O   0  0  0  0  0  0  0  0  0 58  0  0
   12.8174    1.9851    1.1685 C   0  0  0  0  0  0  0  0  0 59  0  0
    3.7397    2.3856   -0.4833 S   0  0  0  0  0  0  0  0  0 60  0  0
    0.5014    2.3159   -0.5596 C   0  0  0  0  0  0  0  0  0 61  0  0
    1.1816    3.3527   -1.0271 N   0  0  0  0  0  0  0  0  0 62  0  0
   -0.0764    4.5391   -1.5637 S   0  0  0  0  0  0  0  0  0 63  0  0
   -1.3981    3.4638   -1.0802 N   0  0  0  0  0  0  0  0  0 64  0  0
   -0.8288    2.3677   -0.5854 C   0  0  0  0  0  0  0  0  0 65  0  0
   -7.9133    2.0391    0.7798 C   0  0  0  0  0  0  0  0  0 66  0  0
  -11.8477    2.5967    3.2979 H   0  0  0  0  0  0  0  0  0  0  0  0
  -13.5932    2.6829    3.0058 H   0  0  0  0  0  0  0  0  0  0  0  0
  -12.5789    1.6201    1.9843 H   0  0  0  0  0  0  0  0  0  0  0  0
  -10.4433    2.0067    1.9603 H   0  0  0  0  0  0  0  0  0  0  0  0
   -9.4390    5.4929   -1.3179 H   0  0  0  0  0  0  0  0  0  0  0  0
  -12.4287    6.3854   -2.0337 H   0  0  0  0  0  0  0  0  0  0  0  0
  -11.6610    7.5329   -0.8229 H   0  0  0  0  0  0  0  0  0  0  0  0
  -13.3894    6.9818   -0.6795 H   0  0  0  0  0  0  0  0  0  0  0  0
   -6.8961    4.1452   -1.3805 H   0  0  0  0  0  0  0  0  0  0  0  0
   -5.5053   -1.5449    2.3425 H   0  0  0  0  0  0  0  0  0  0  0  0
   -5.6400   -2.1747    0.7047 H   0  0  0  0  0  0  0  0  0  0  0  0
   -7.6224   -2.8111    2.2583 H   0  0  0  0  0  0  0  0  0  0  0  0
   -8.0023   -1.0972    2.3864 H   0  0  0  0  0  0  0  0  0  0  0  0
   -6.9524   -2.5326   -0.7802 H   0  0  0  0  0  0  0  0  0  0  0  0
   -8.6151   -2.6078   -1.3462 H   0  0  0  0  0  0  0  0  0  0  0  0
   -9.1564   -4.3661    0.3471 H   0  0  0  0  0  0  0  0  0  0  0  0
   -7.4803   -4.3517    0.9675 H   0  0  0  0  0  0  0  0  0  0  0  0
   -7.4435   -6.9475   -1.4729 H   0  0  0  0  0  0  0  0  0  0  0  0
   -7.0536   -6.6095    0.2615 H   0  0  0  0  0  0  0  0  0  0  0  0
   -9.9069   -6.7506   -0.9479 H   0  0  0  0  0  0  0  0  0  0  0  0
   -9.5228   -6.2375    0.6894 H   0  0  0  0  0  0  0  0  0  0  0  0
   -7.8149   -8.8466   -1.2667 H   0  0  0  0  0  0  0  0  0  0  0  0
   -8.9542  -10.0739   -0.5715 H   0  0  0  0  0  0  0  0  0  0  0  0
   -9.5057   -8.7738   -1.7450 H   0  0  0  0  0  0  0  0  0  0  0  0
   -3.5123   -0.5818    0.7896 H   0  0  0  0  0  0  0  0  0  0  0  0
   -1.5143   -0.7043    0.7757 H   0  0  0  0  0  0  0  0  0  0  0  0
    0.8919   -0.7826    0.8200 H   0  0  0  0  0  0  0  0  0  0  0  0
    2.9158   -0.7661    1.1500 H   0  0  0  0  0  0  0  0  0  0  0  0
    4.5711   -1.4330    2.7638 H   0  0  0  0  0  0  0  0  0  0  0  0
    4.7101   -2.3481    1.2203 H   0  0  0  0  0  0  0  0  0  0  0  0
    6.8249   -1.7102    3.4038 H   0  0  0  0  0  0  0  0  0  0  0  0
    5.9912   -3.2331    3.2241 H   0  0  0  0  0  0  0  0  0  0  0  0
    9.2925   -3.0215    1.0992 H   0  0  0  0  0  0  0  0  0  0  0  0
    8.9136   -1.3757    1.6435 H   0  0  0  0  0  0  0  0  0  0  0  0
    7.7867   -2.7904   -0.8584 H   0  0  0  0  0  0  0  0  0  0  0  0
    7.2550   -1.1726   -0.3575 H   0  0  0  0  0  0  0  0  0  0  0  0
   10.7420   -2.4237   -0.0493 H   0  0  0  0  0  0  0  0  0  0  0  0
   11.0355   -1.5602   -1.6124 H   0  0  0  0  0  0  0  0  0  0  0  0
    9.5999   -3.1411   -2.7931 H   0  0  0  0  0  0  0  0  0  0  0  0
    9.3239   -4.0323   -1.1973 H   0  0  0  0  0  0  0  0  0  0  0  0
   12.0146   -5.8038   -2.6461 H   0  0  0  0  0  0  0  0  0  0  0  0
   10.2506   -5.8778   -2.1464 H   0  0  0  0  0  0  0  0  0  0  0  0
   10.6820   -5.0224   -3.6408 H   0  0  0  0  0  0  0  0  0  0  0  0
    7.6738    0.6213    1.1588 H   0  0  0  0  0  0  0  0  0  0  0  0
    6.2230    3.8531   -1.1398 H   0  0  0  0  0  0  0  0  0  0  0  0
   10.4099    1.3059    1.1914 H   0  0  0  0  0  0  0  0  0  0  0  0
   10.0389    6.6762   -1.4814 H   0  0  0  0  0  0  0  0  0  0  0  0
   10.8268    5.9510   -2.9106 H   0  0  0  0  0  0  0  0  0  0  0  0
   11.8060    6.9724   -1.8265 H   0  0  0  0  0  0  0  0  0  0  0  0
    8.7545    5.0989   -1.5032 H   0  0  0  0  0  0  0  0  0  0  0  0
   12.8752    1.0465    0.5878 H   0  0  0  0  0  0  0  0  0  0  0  0
   12.1914    1.8845    2.0662 H   0  0  0  0  0  0  0  0  0  0  0  0
   13.8618    2.2565    1.4577 H   0  0  0  0  0  0  0  0  0  0  0  0
   -7.8784    1.1993    1.4487 H   0  0  0  0  0  0  0  0  0  0  0  0
  1  2  1  0
  2  3  1  0
  3  4  2  0
  4  5  1  0
  5  6  2  0
  6  7  1  0
  7  8  2  0
  8  9  1  0
  9 10  1  0
  6 11  1  0
 11 12  1  0
 12 13  1  0
 13 14  2  0
 14 15  1  0
 15 16  1  0
 16 17  1  0
 17 18  1  0
 18 19  1  0
 19 20  1  0
 20 21  1  0
 21 22  1  0
 22 23  1  0
 23 24  1  0
 24 25  1  0
 14 26  1  0
 26 27  2  0
 27 28  1  0
 27 29  1  0
 29 30  2  0
 30 31  1  0
 31 32  2  0
 32 33  1  0
 33 34  2  0
 34 35  1  0
 35 36  1  0
 36 37  1  0
 37 38  1  0
 38 39  1  0
 39 40  1  0
 40 41  1  0
 41 42  1  0
 42 43  1  0
 43 44  1  0
 44 45  1  0
 45 46  1  0
 35 47  2  0
 47 48  1  0
 48 49  1  0
 48 50  2  0
 50 51  1  0
 51 52  2  0
 52 53  1  0
 53 54  2  0
 54 55  1  0
 55 56  1  0
 56 57  1  0
 55 58  2  0
 54 59  1  0
 59 60  1  0
 47 61  1  0
 32 62  1  0
 62 63  2  0
 63 64  1  0
 64 65  1  0
 65 66  2  0
 12 67  2  0
  8  3  1  0
 67  5  1  0
 28 13  1  0
 66 29  1  0
 61 33  1  0
 52 49  1  0
 58 51  1  0
 66 62  1  0
  1 68  1  0
  1 69  1  0
  1 70  1  0
  4 71  1  0
  7 72  1  0
 10 73  1  0
 10 74  1  0
 10 75  1  0
 11 76  1  0
 16 77  1  0
 16 78  1  0
 17 79  1  0
 17 80  1  0
 19 81  1  0
 19 82  1  0
 20 83  1  0
 20 84  1  0
 22 85  1  0
 22 86  1  0
 23 87  1  0
 23 88  1  0
 25 89  1  0
 25 90  1  0
 25 91  1  0
 26 92  1  0
 30 93  1  0
 31 94  1  0
 34 95  1  0
 37 96  1  0
 37 97  1  0
 38 98  1  0
 38 99  1  0
 40100  1  0
 40101  1  0
 41102  1  0
 41103  1  0
 43104  1  0
 43105  1  0
 44106  1  0
 44107  1  0
 46108  1  0
 46109  1  0
 46110  1  0
 49111  1  0
 50112  1  0
 53113  1  0
 57114  1  0
 57115  1  0
 57116  1  0
 58117  1  0
 60118  1  0
 60119  1  0
 60120  1  0
 67121  1  0
M  END
