
     RDKit          3D

121128  0  0  0  0  0  0  0  0999 V2000
  -12.6146    2.6171    2.4927 C   0  0  0  0  0  0  0  0  0  0  0  0
  -12.4239    3.6584    1.5632 O   0  0  0  0  0  0  0  0  0  1  0  0
  -11.1656    3.7174    0.9245 C   0  0  0  0  0  0  0  0  0  2  0  0
  -10.2437    2.7888    1.2404 C   0  0  0  0  0  0  0  0  0  3  0  0
   -9.0132    2.8421    0.6227 C   0  0  0  0  0  0  0  0  0  4  0  0
   -8.7119    3.8113   -0.2991 C   0  0  0  0  0  0  0  0  0  5  0  0
   -9.6682    4.7410   -0.6019 C   0  0  0  0  0  0  0  0  0  6  0  0
  -10.9436    4.7570   -0.0181 C   0  0  0  0  0  0  0  0  0  7  0  0
  -11.9241    5.5767   -0.2243 O   0  0  0  0  0  0  0  0  0  8  0  0
  -12.3621    6.6566   -0.9428 C   0  0  0  0  0  0  0  0  0  9  0  0
   -7.4240    3.5731   -0.6813 N   0  0  0  0  0  0  0  0  0 10  0  0
   -6.9179    2.5241   -0.0570 C   0  0  0  0  0  0  0  0  0 11  0  0
   -5.5870    1.9278   -0.0506 C   0  0  0  0  0  0  0  0  0 12  0  0
   -5.1892    0.6986    0.4880 C   0  0  0  0  0  0  0  0  0 13  0  0
   -6.1507   -0.1504    1.0061 O   0  0  0  0  0  0  0  0  0 14  0  0
   -6.0643   -1.3886    1.5811 C   0  0  0  0  0  0  0  0  0 15  0  0
   -7.5135   -1.7796    1.9474 C   0  0  0  0  0  0  0  0  0 16  0  0
   -8.3158   -1.8147    0.8380 O   0  0  0  0  0  0  0  0  0 17  0  0
   -7.9759   -2.7303   -0.1154 C   0  0  0  0  0  0  0  0  0 18  0  0
   -8.0739   -4.1429    0.4669 C   0  0  0  0  0  0  0  0  0 19  0  0
   -7.7415   -5.0917   -0.4731 O   0  0  0  0  0  0  0  0  0 20  0  0
   -7.8003   -6.4136   -0.0463 C   0  0  0  0  0  0  0  0  0 21  0  0
   -9.1406   -6.8664    0.4204 C   0  0  0  0  0  0  0  0  0 22  0  0
   -9.1659   -8.1832    0.8349 O   0  0  0  0  0  0  0  0  0 23  0  0
   -8.8444   -9.0280   -0.1992 C   0  0  0  0  0  0  0  0  0 24  0  0
   -3.8734    0.4488    0.4495 C   0  0  0  0  0  0  0  0  0 25  0  0
   -3.0337    1.3255   -0.0703 C   0  0  0  0  0  0  0  0  0 26  0  0
   -4.0616    2.6886   -0.6047 S   0  0  0  0  0  0  0  0  0 27  0  0
   -1.5729    1.2600   -0.1563 C   0  0  0  0  0  0  0  0  0 28  0  0
   -1.0053    0.0240   -0.2446 C   0  0  0  0  0  0  0  0  0 29  0  0
    0.3599   -0.0690   -0.2550 C   0  0  0  0  0  0  0  0  0 30  0  0
    1.0974    1.0649   -0.1773 C   0  0  0  0  0  0  0  0  0 31  0  0
    2.5512    0.8967   -0.0995 C   0  0  0  0  0  0  0  0  0 32  0  0
    3.3349   -0.2265   -0.0073 C   0  0  0  0  0  0  0  0  0 33  0  0
    4.6549   -0.0256    0.1151 C   0  0  0  0  0  0  0  0  0 34  0  0
    5.5632   -1.1302    0.2244 O   0  0  0  0  0  0  0  0  0 35  0  0
    5.1932   -2.4490    0.1938 C   0  0  0  0  0  0  0  0  0 36  0  0
    6.3249   -3.4000    0.3939 C   0  0  0  0  0  0  0  0  0 37  0  0
    7.3521   -3.5131   -0.3604 O   0  0  0  0  0  0  0  0  0 38  0  0
    8.2967   -2.7296   -0.7784 C   0  0  0  0  0  0  0  0  0 39  0  0
    7.9761   -1.6948   -1.8141 C   0  0  0  0  0  0  0  0  0 40  0  0
    9.0954   -0.9497   -2.1260 O   0  0  0  0  0  0  0  0  0 41  0  0
   10.1730   -1.5992   -2.6280 C   0  0  0  0  0  0  0  0  0 42  0  0
    9.8761   -2.3338   -3.9148 C   0  0  0  0  0  0  0  0  0 43  0  0
   11.0825   -2.9549   -4.3190 O   0  0  0  0  0  0  0  0  0 44  0  0
   10.8884   -3.6522   -5.5023 C   0  0  0  0  0  0  0  0  0 45  0  0
    5.1236    1.2356    0.1380 C   0  0  0  0  0  0  0  0  0 46  0  0
    6.5577    1.6767    0.2947 C   0  0  0  0  0  0  0  0  0 47  0  0
    7.6093    0.9086    0.4986 N   0  0  0  0  0  0  0  0  0 48  0  0
    6.9531    2.9963    0.2369 C   0  0  0  0  0  0  0  0  0 49  0  0
    8.3247    2.9759    0.4225 C   0  0  0  0  0  0  0  0  0 50  0  0
    8.7252    1.6670    0.5852 C   0  0  0  0  0  0  0  0  0 51  0  0
   10.0665    1.4288    0.7873 C   0  0  0  0  0  0  0  0  0 52  0  0
   10.9865    2.4613    0.8265 C   0  0  0  0  0  0  0  0  0 53  0  0
   10.5553    3.7555    0.6607 C   0  0  0  0  0  0  0  0  0 54  0  0
   11.4721    4.7887    0.6990 O   0  0  0  0  0  0  0  0  0 55  0  0
   11.1112    6.1301    0.5386 C   0  0  0  0  0  0  0  0  0 56  0  0
    9.2042    4.0340    0.4544 C   0  0  0  0  0  0  0  0  0 57  0  0
   12.3416    2.2544    1.0281 O   0  0  0  0  0  0  0  0  0 58  0  0
   12.8214    0.9461    1.2020 C   0  0  0  0  0  0  0  0  0 59  0  0
    3.7664    2.2990   -0.0108 S   0  0  0  0  0  0  0  0  0 60  0  0
    0.5279    2.3540   -0.0894 C   0  0  0  0  0  0  0  0  0 61  0  0
    1.2367    3.4717   -0.0222 N   0  0  0  0  0  0  0  0  0 62  0  0
    0.0120    4.8024    0.0666 S   0  0  0  0  0  0  0  0  0 63  0  0
   -1.3390    3.6591   -0.0002 N   0  0  0  0  0  0  0  0  0 64  0  0
   -0.8004    2.4450   -0.0792 C   0  0  0  0  0  0  0  0  0 65  0  0
   -7.9133    2.0391    0.7798 C   0  0  0  0  0  0  0  0  0 66  0  0
  -11.8477    2.5967    3.2979 H   0  0  0  0  0  0  0  0  0  0  0  0
  -13.5932    2.6829    3.0058 H   0  0  0  0  0  0  0  0  0  0  0  0
  -12.5789    1.6201    1.9843 H   0  0  0  0  0  0  0  0  0  0  0  0
  -10.4433    2.0067    1.9603 H   0  0  0  0  0  0  0  0  0  0  0  0
   -9.4390    5.4929   -1.3179 H   0  0  0  0  0  0  0  0  0  0  0  0
  -12.4287    6.3854   -2.0337 H   0  0  0  0  0  0  0  0  0  0  0  0
  -11.6610    7.5329   -0.8229 H   0  0  0  0  0  0  0  0  0  0  0  0
  -13.3894    6.9818   -0.6795 H   0  0  0  0  0  0  0  0  0  0  0  0
   -6.8961    4.1452   -1.3805 H   0  0  0  0  0  0  0  0  0  0  0  0
   -5.4460   -1.4104    2.5242 H   0  0  0  0  0  0  0  0  0  0  0  0
   -5.6201   -2.1278    0.9267 H   0  0  0  0  0  0  0  0  0  0  0  0
   -7.5639   -2.6774    2.5601 H   0  0  0  0  0  0  0  0  0  0  0  0
   -7.9413   -0.9587    2.6043 H   0  0  0  0  0  0  0  0  0  0  0  0
   -6.9679   -2.5643   -0.5044 H   0  0  0  0  0  0  0  0  0  0  0  0
   -8.6439   -2.6685   -1.0250 H   0  0  0  0  0  0  0  0  0  0  0  0
   -9.1432   -4.3320    0.7736 H   0  0  0  0  0  0  0  0  0  0  0  0
   -7.4526   -4.2857    1.3514 H   0  0  0  0  0  0  0  0  0  0  0  0
   -7.4739   -7.0098   -0.9451 H   0  0  0  0  0  0  0  0  0  0  0  0
   -7.0423   -6.5788    0.7585 H   0  0  0  0  0  0  0  0  0  0  0  0
   -9.9239   -6.7825   -0.3720 H   0  0  0  0  0  0  0  0  0  0  0  0
   -9.5005   -6.1818    1.2254 H   0  0  0  0  0  0  0  0  0  0  0  0
   -7.8395   -8.8946   -0.6275 H   0  0  0  0  0  0  0  0  0  0  0  0
   -8.9612  -10.0814    0.1605 H   0  0  0  0  0  0  0  0  0  0  0  0
   -9.5414   -8.8462   -1.0679 H   0  0  0  0  0  0  0  0  0  0  0  0
   -3.4915   -0.5346    0.8736 H   0  0  0  0  0  0  0  0  0  0  0  0
   -1.5710   -0.8887   -0.3082 H   0  0  0  0  0  0  0  0  0  0  0  0
    0.8322   -1.0387   -0.3214 H   0  0  0  0  0  0  0  0  0  0  0  0
    2.8539   -1.2289   -0.0354 H   0  0  0  0  0  0  0  0  0  0  0  0
    4.4824   -2.6142    1.0682 H   0  0  0  0  0  0  0  0  0  0  0  0
    4.6074   -2.7044   -0.7249 H   0  0  0  0  0  0  0  0  0  0  0  0
    6.7248   -3.2146    1.4894 H   0  0  0  0  0  0  0  0  0  0  0  0
    5.8542   -4.4553    0.6239 H   0  0  0  0  0  0  0  0  0  0  0  0
    9.1720   -3.3572   -1.1771 H   0  0  0  0  0  0  0  0  0  0  0  0
    8.8315   -2.1481    0.0760 H   0  0  0  0  0  0  0  0  0  0  0  0
    7.6839   -2.2000   -2.7895 H   0  0  0  0  0  0  0  0  0  0  0  0
    7.1902   -0.9915   -1.5867 H   0  0  0  0  0  0  0  0  0  0  0  0
   10.6428   -2.3281   -1.9224 H   0  0  0  0  0  0  0  0  0  0  0  0
   10.9671   -0.8415   -2.9021 H   0  0  0  0  0  0  0  0  0  0  0  0
    9.4991   -1.6503   -4.6755 H   0  0  0  0  0  0  0  0  0  0  0  0
    9.1914   -3.1771   -3.6799 H   0  0  0  0  0  0  0  0  0  0  0  0
   11.8451   -4.1321   -5.8067 H   0  0  0  0  0  0  0  0  0  0  0  0
   10.0769   -4.3871   -5.3880 H   0  0  0  0  0  0  0  0  0  0  0  0
   10.5384   -2.9433   -6.3117 H   0  0  0  0  0  0  0  0  0  0  0  0
    7.6452   -0.1260    0.5896 H   0  0  0  0  0  0  0  0  0  0  0  0
    6.2897    3.8407    0.0788 H   0  0  0  0  0  0  0  0  0  0  0  0
   10.3974    0.3954    0.9206 H   0  0  0  0  0  0  0  0  0  0  0  0
   10.1773    6.3995    1.0718 H   0  0  0  0  0  0  0  0  0  0  0  0
   10.9550    6.4074   -0.5358 H   0  0  0  0  0  0  0  0  0  0  0  0
   11.9533    6.7785    0.8936 H   0  0  0  0  0  0  0  0  0  0  0  0
    8.8538    5.0482    0.3235 H   0  0  0  0  0  0  0  0  0  0  0  0
   12.8589    0.3868    0.2495 H   0  0  0  0  0  0  0  0  0  0  0  0
   12.1878    0.4530    1.9526 H   0  0  0  0  0  0  0  0  0  0  0  0
   13.8705    1.0245    1.5777 H   0  0  0  0  0  0  0  0  0  0  0  0
   -7.8784    1.1993    1.4487 H   0  0  0  0  0  0  0  0  0  0  0  0
  1  2  1  0
  2  3  1  0
  3  4  2  0
  4  5  1  0
  5  6  2  0
  6  7  1  0
  7  8  2  0
  8  9  1  0
  9 10  1  0
  6 11  1  0
 11 12  1  0
 12 13  1  0
 13 14  2  0
 14 15  1  0
 15 16  1  0
 16 17  1  0
 17 18  1  0
 18 19  1  0
 19 20  1  0
 20 21  1  0
 21 22  1  0
 22 23  1  0
 23 24  1  0
 24 25  1  0
 14 26  1  0
 26 27  2  0
 27 28  1  0
 27 29  1  0
 29 30  2  0
 30 31  1  0
 31 32  2  0
 32 33  1  0
 33 34  2  0
 34 35  1  0
 35 36  1  0
 36 37  1  0
 37 38  1  0
 38 39  1  0
 39 40  1  0
 40 41  1  0
 41 42  1  0
 42 43  1  0
 43 44  1  0
 44 45  1  0
 45 46  1  0
 35 47  2  0
 47 48  1  0
 48 49  1  0
 48 50  2  0
 50 51  1  0
 51 52  2  0
 52 53  1  0
 53 54  2  0
 54 55  1  0
 55 56  1  0
 56 57  1  0
 55 58  2  0
 54 59  1  0
 59 60  1  0
 47 61  1  0
 32 62  1  0
 62 63  2  0
 63 64  1  0
 64 65  1  0
 65 66  2  0
 12 67  2  0
  8  3  1  0
 67  5  1  0
 28 13  1  0
 66 29  1  0
 61 33  1  0
 52 49  1  0
 58 51  1  0
 66 62  1  0
  1 68  1  0
  1 69  1  0
  1 70  1  0
  4 71  1  0
  7 72  1  0
 10 73  1  0
 10 74  1  0
 10 75  1  0
 11 76  1  0
 16 77  1  0
 16 78  1  0
 17 79  1  0
 17 80  1  0
 19 81  1  0
 19 82  1  0
 20 83  1  0
 20 84  1  0
 22 85  1  0
 22 86  1  0
 23 87  1  0
 23 88  1  0
 25 89  1  0
 25 90  1  0
 25 91  1  0
 26 92  1  0
 30 93  1  0
 31 94  1  0
 34 95  1  0
 37 96  1  0
 37 97  1  0
 38 98  1  0
 38 99  1  0
 40100  1  0
 40101  1  0
 41102  1  0
 41103  1  0
 43104  1  0
 43105  1  0
 44106  1  0
 44107  1  0
 46108  1  0
 46109  1  0
 46110  1  0
 49111  1  0
 50112  1  0
 53113  1  0
 57114  1  0
 57115  1  0
 57116  1  0
 58117  1  0
 60118  1  0
 60119  1  0
 60120  1  0
 67121  1  0
M  END
