24
symmetry c1
C        4.681788000     -0.136970000     -0.519729000
O        3.457104000      0.535183000     -0.769707000
C        2.335395000     -0.055842000     -0.275919000
C        2.237228000     -1.223821000      0.442057000
S        0.585034000     -1.594080000      0.825312000
C        0.015201000     -0.137286000      0.030252000
C       -1.386264000      0.284065000      0.043888000
C       -1.733724000      1.622659000     -0.015644000
C       -3.084873000      2.077653000     -0.036358000
C       -4.147997000      1.214189000      0.031337000
C       -3.858782000     -0.175903000      0.123088000
N       -4.761794000     -1.160630000      0.211904000
S       -3.910518000     -2.563910000      0.299192000
N       -2.377055000     -1.974689000      0.223736000
C       -2.482978000     -0.645804000      0.129888000
C        1.072216000      0.561765000     -0.506598000
H        4.873818000     -0.225300000      0.558278000
H        4.683650000     -1.139574000     -0.968475000
H        5.463709000      0.469432000     -0.980092000
H        3.022571000     -1.902330000      0.740604000
H       -0.943513000      2.366427000     -0.035071000
H       -5.178128000      1.552697000      0.027066000
H        0.971617000      1.480138000     -1.072875000
H       -3.263008000      3.147883000     -0.093553000















