24
symmetry c1
C        4.696839000     -0.111158000     -0.434974000
O        3.488901000      0.622306000     -0.565308000
C        2.345678000     -0.040430000     -0.239875000
C        2.209593000     -1.334514000      0.202502000
S        0.544453000     -1.742225000      0.471362000
C        0.014607000     -0.134071000     -0.002338000
C       -1.386975000      0.286562000      0.014144000
C       -1.750709000      1.611392000     -0.168395000
C       -3.102707000      2.059274000     -0.180115000
C       -4.160182000      1.205164000      0.002826000
C       -3.858572000     -0.168793000      0.209479000
N       -4.752451000     -1.144992000      0.413030000
S       -3.892697000     -2.532606000      0.597752000
N       -2.366200000     -1.946063000      0.424755000
C       -2.479897000     -0.631523000      0.215873000
C        1.100402000      0.637816000     -0.356627000
H        4.855867000     -0.434057000      0.602886000
H        4.699276000     -0.992934000     -1.090046000
H        5.499778000      0.565467000     -0.732552000
H        2.976778000     -2.075611000      0.371808000
H       -0.974727000      2.357626000     -0.301782000
H       -5.191587000      1.539389000     -0.000235000
H        1.042052000      1.661116000     -0.706976000
H       -3.286825000      3.118816000     -0.334613000

















