24
symmetry c1
C        4.657955000     -0.241985000     -0.639836000
O        3.408843000      0.305587000     -1.032005000
C        2.324136000     -0.100395000     -0.318230000
C        2.285107000     -0.973144000      0.741084000
S        0.658426000     -1.193169000      1.313388000
C        0.024715000     -0.094293000      0.104429000
C       -1.386853000      0.318214000      0.086055000
C       -1.746275000      1.645601000      0.203773000
C       -3.106364000      2.083911000      0.191404000
C       -4.152327000      1.203811000      0.092191000
C       -3.844513000     -0.183130000     -0.005814000
N       -4.732685000     -1.180497000     -0.103259000
S       -3.856124000     -2.569432000     -0.187551000
N       -2.331864000     -1.959003000     -0.106880000
C       -2.462569000     -0.631617000     -0.006567000
C        1.036211000      0.410159000     -0.670991000
H        4.900248000      0.024506000      0.398033000
H        4.660853000     -1.335848000     -0.739991000
H        5.404906000      0.187209000     -1.309842000
H        3.096983000     -1.512555000      1.205658000
H       -0.960825000      2.387451000      0.312251000
H       -5.187819000      1.526408000      0.092051000
H        0.884273000      1.109468000     -1.485053000
H       -3.303742000      3.148697000      0.278282000












