24
symmetry c1
C        4.536867000     -0.700528000     -0.814807000
O        3.229047000     -0.409944000     -1.282639000
C        2.278074000     -0.216882000     -0.329758000
C        2.427953000     -0.257553000      1.034479000
S        0.916267000      0.057662000      1.834332000
C        0.085214000      0.268917000      0.305799000
C       -1.367197000      0.524447000      0.275300000
C       -1.911851000      1.716184000      0.704255000
C       -3.315150000      1.986663000      0.660929000
C       -4.213042000      1.077087000      0.166958000
C       -3.706667000     -0.166778000     -0.307254000
N       -4.434229000     -1.164793000     -0.824883000
S       -3.367647000     -2.355940000     -1.210099000
N       -1.958454000     -1.654120000     -0.738554000
C       -2.281926000     -0.448097000     -0.258115000
C        0.938638000      0.070284000     -0.743842000
H        4.932293000      0.122779000     -0.204310000
H        4.550122000     -1.625583000     -0.222631000
H        5.159195000     -0.827104000     -1.702342000
H        3.318158000     -0.448774000      1.614575000
H       -1.246508000      2.481947000      1.092474000
H       -5.278704000      1.274628000      0.124136000
H        0.645774000      0.122797000     -1.785555000
H       -3.665531000      2.948653000      1.024132000







