24
symmetry c1
C        4.500830000     -0.969133000     -0.703279000
O        3.126831000     -1.073207000     -1.042449000
C        2.262169000     -0.352382000     -0.280439000
C        2.555276000      0.468935000      0.780081000
S        1.111733000      1.174441000      1.441717000
C        0.095489000      0.354353000      0.257443000
C       -1.352974000      0.551125000      0.258799000
C       -1.966519000      1.523044000      1.031463000
C       -3.375154000      1.731747000      1.064325000
C       -4.240812000      0.979217000      0.314325000
C       -3.679112000     -0.034474000     -0.510379000
N       -4.371779000     -0.858695000     -1.306039000
S       -3.270272000     -1.833458000     -2.036433000
N       -1.885335000     -1.247710000     -1.371357000
C       -2.240699000     -0.256804000     -0.546783000
C        0.866944000     -0.420546000     -0.575650000
H        4.855969000      0.066215000     -0.797213000
H        4.684955000     -1.321066000      0.320958000
H        5.039413000     -1.604105000     -1.408701000
H        3.514674000      0.699785000      1.218060000
H       -1.350653000      2.174130000      1.645251000
H       -5.314329000      1.130631000      0.328642000
H        0.464184000     -1.025637000     -1.375413000
H       -3.760132000      2.519544000      1.705651000


