24
symmetry c1
C        4.674716000     -0.158804000     -0.556817000
O        3.441561000      0.474128000     -0.861609000
C        2.330781000     -0.068086000     -0.293079000
C        2.251308000     -1.153000000      0.546680000
S        0.606093000     -1.489014000      0.989900000
C        0.016074000     -0.134717000      0.045189000
C       -1.386711000      0.286906000      0.052176000
C       -1.730543000      1.626535000      0.052261000
C       -3.082502000      2.082499000      0.036518000
C       -4.144713000      1.215806000      0.053538000
C       -3.856937000     -0.177809000      0.084310000
N       -4.760675000     -1.165277000      0.116617000
S       -3.908548000     -2.570968000      0.146605000
N       -2.374385000     -1.979757000      0.115911000
C       -2.481439000     -0.647604000      0.084456000
C        1.058978000      0.514460000     -0.571697000
H        4.880168000     -0.129952000      0.521959000
H        4.679533000     -1.203605000     -0.895837000
H        5.445993000      0.400397000     -1.089226000
H        3.045482000     -1.790569000      0.905725000
H       -0.936696000      2.366629000      0.075081000
H       -5.175049000      1.553990000      0.053735000
H        0.939775000      1.369718000     -1.226577000
H       -3.261569000      3.154044000      0.026763000














