24
symmetry c1
C        4.702300000     -0.099906000     -0.383273000
O        3.500503000      0.652055000     -0.448754000
C        2.348430000     -0.035991000     -0.221807000
C        2.197771000     -1.371432000      0.065431000
S        0.527531000     -1.791977000      0.275581000
C        0.012963000     -0.137708000     -0.028940000
C       -1.388711000      0.283042000     -0.013424000
C       -1.758731000      1.596021000     -0.259138000
C       -3.110074000      2.045372000     -0.253192000
C       -4.162776000      1.203217000     -0.000452000
C       -3.855967000     -0.160135000      0.260508000
N       -4.744744000     -1.125774000      0.527059000
S       -3.881259000     -2.505223000      0.750233000
N       -2.359332000     -1.927714000      0.517818000
C       -2.477355000     -0.623324000      0.255199000
C        1.109541000      0.661048000     -0.274837000
H        4.842072000     -0.540141000      0.613393000
H        4.711308000     -0.901275000     -1.134544000
H        5.513675000      0.600522000     -0.588642000
H        2.958411000     -2.131467000      0.166970000
H       -0.989513000      2.331609000     -0.468596000
H       -5.193951000      1.538058000      0.005708000
H        1.066452000      1.721411000     -0.491521000
H       -3.297847000      3.095663000     -0.458199000


















