24
symmetry c1
C        4.558227000     -0.623436000     -0.809960000
O        3.266458000     -0.262065000     -1.272659000
C        2.288924000     -0.189837000     -0.329657000
C        2.398096000     -0.411246000      1.020340000
S        0.864358000     -0.191949000      1.811460000
C        0.077966000      0.214988000      0.300134000
C       -1.371610000      0.501728000      0.256890000
C       -1.888789000      1.725213000      0.621853000
C       -3.287379000      2.021418000      0.568751000
C       -4.206340000      1.100346000      0.139427000
C       -3.728428000     -0.181136000     -0.258424000
N       -4.479094000     -1.196477000     -0.704444000
S       -3.437877000     -2.429949000     -1.019886000
N       -2.011637000     -1.725951000     -0.606467000
C       -2.309068000     -0.485566000     -0.202531000
C        0.962431000      0.160255000     -0.740083000
H        4.940034000      0.108877000     -0.085450000
H        4.549004000     -1.618307000     -0.344367000
H        5.205634000     -0.638124000     -1.688424000
H        3.270192000     -0.682908000      1.595907000
H       -1.206077000      2.497470000      0.964275000
H       -5.268463000      1.315619000      0.093108000
H        0.700678000      0.356928000     -1.773058000
H       -3.616544000      3.010060000      0.875848000








