24
symmetry c1
C        4.508984000     -0.883369000     -0.755457000
O        3.151553000     -0.873952000     -1.169118000
C        2.262502000     -0.314590000     -0.306227000
C        2.518106000      0.251462000      0.919204000
S        1.054731000      0.830140000      1.656287000
C        0.089527000      0.322210000      0.276017000
C       -1.356637000      0.540126000      0.267653000
C       -1.947085000      1.601193000      0.930962000
C       -3.354501000      1.829569000      0.943865000
C       -4.230265000      1.016987000      0.271941000
C       -3.685625000     -0.082544000     -0.449064000
N       -4.387710000     -0.971569000     -1.162672000
S       -3.295329000     -2.027042000     -1.789736000
N       -1.903437000     -1.397826000     -1.180951000
C       -2.251683000     -0.327396000     -0.459284000
C        0.880949000     -0.284663000     -0.667219000
H        4.885550000      0.137580000     -0.604748000
H        4.636974000     -1.454905000      0.173879000
H        5.070524000     -1.363700000     -1.558476000
H        3.459737000      0.355237000      1.436951000
H       -1.311918000      2.303616000      1.463049000
H       -5.301342000      1.186112000      0.269116000
H        0.506358000     -0.701945000     -1.591871000
H       -3.729267000      2.685221000      1.498480000



