24
symmetry c1
C        4.620390000     -0.413786000     -0.742113000
O        3.354013000      0.050573000     -1.182715000
C        2.313332000     -0.141373000     -0.327619000
C        2.334383000     -0.722059000      0.915124000
S        0.744496000     -0.739624000      1.622399000
C        0.049286000      0.039710000      0.216409000
C       -1.382128000      0.405432000      0.170132000
C       -1.809554000      1.693191000      0.408224000
C       -3.189432000      2.069495000      0.371324000
C       -4.181175000      1.160779000      0.110613000
C       -3.799267000     -0.190160000     -0.130248000
N       -4.628881000     -1.206771000     -0.397976000
S       -3.677576000     -2.534544000     -0.590055000
N       -2.193519000     -1.872487000     -0.344427000
C       -2.398632000     -0.573320000     -0.098882000
C        1.009156000      0.300755000     -0.721364000
H        4.931888000      0.096254000      0.179749000
H        4.605990000     -1.497852000     -0.565501000
H        5.326612000     -0.184090000     -1.541839000
H        3.169918000     -1.141589000      1.455091000
H       -1.067522000      2.454286000      0.630851000
H       -5.230281000      1.435192000      0.084945000
H        0.814276000      0.780347000     -1.673534000
H       -3.445077000      3.107593000      0.563992000










