symmetry c1
 OpenBabel03202517553D

 24 26  0  0  0  0  0  0  0  0999 V2000
    4.5582   -0.6234   -0.8100 C   0  0  0  0  0  0  0  0  0  0  0  0
    3.2665   -0.2621   -1.2727 O   0  0  0  0  0  0  0  0  0  0  0  0
    2.2889   -0.1898   -0.3297 C   0  0  0  0  0  0  0  0  0  0  0  0
    2.3981   -0.4112    1.0203 C   0  0  0  0  0  0  0  0  0  0  0  0
    0.8644   -0.1919    1.8115 S   0  0  0  0  0  0  0  0  0  0  0  0
    0.0780    0.2150    0.3001 C   0  0  0  0  0  0  0  0  0  0  0  0
   -1.3716    0.5017    0.2569 C   0  0  0  0  0  0  0  0  0  0  0  0
   -1.8888    1.7252    0.6219 C   0  0  0  0  0  0  0  0  0  0  0  0
   -3.2874    2.0214    0.5688 C   0  0  0  0  0  0  0  0  0  0  0  0
   -4.2063    1.1003    0.1394 C   0  0  0  0  0  0  0  0  0  0  0  0
   -3.7284   -0.1811   -0.2584 C   0  0  0  0  0  0  0  0  0  0  0  0
   -4.4791   -1.1965   -0.7044 N   0  0  0  0  0  0  0  0  0  0  0  0
   -3.4379   -2.4299   -1.0199 S   0  0  0  0  0  0  0  0  0  0  0  0
   -2.0116   -1.7260   -0.6065 N   0  0  0  0  0  0  0  0  0  0  0  0
   -2.3091   -0.4856   -0.2025 C   0  0  0  0  0  0  0  0  0  0  0  0
    0.9624    0.1603   -0.7401 C   0  0  0  0  0  0  0  0  0  0  0  0
    4.9400    0.1089   -0.0854 H   0  0  0  0  0  0  0  0  0  0  0  0
    4.5490   -1.6183   -0.3444 H   0  0  0  0  0  0  0  0  0  0  0  0
    5.2056   -0.6381   -1.6884 H   0  0  0  0  0  0  0  0  0  0  0  0
    3.2702   -0.6829    1.5959 H   0  0  0  0  0  0  0  0  0  0  0  0
   -1.2061    2.4975    0.9643 H   0  0  0  0  0  0  0  0  0  0  0  0
   -5.2685    1.3156    0.0931 H   0  0  0  0  0  0  0  0  0  0  0  0
    0.7007    0.3569   -1.7731 H   0  0  0  0  0  0  0  0  0  0  0  0
   -3.6165    3.0101    0.8758 H   0  0  0  0  0  0  0  0  0  0  0  0
  1 18  1  0  0  0  0
  1 17  1  0  0  0  0
  2  1  1  0  0  0  0
  2  3  1  0  0  0  0
  3  4  2  0  0  0  0
  4 20  1  0  0  0  0
  4  5  1  0  0  0  0
  6  5  1  0  0  0  0
  7  6  1  0  0  0  0
  7  8  2  0  0  0  0
  8 21  1  0  0  0  0
  9  8  1  0  0  0  0
  9 24  1  0  0  0  0
 10  9  2  0  0  0  0
 11 15  1  0  0  0  0
 11 10  1  0  0  0  0
 12 11  2  0  0  0  0
 13 12  1  0  0  0  0
 13 14  1  0  0  0  0
 14 15  2  0  0  0  0
 15  7  1  0  0  0  0
 16  3  1  0  0  0  0
 16  6  2  0  0  0  0
 19  1  1  0  0  0  0
 22 10  1  0  0  0  0
 23 16  1  0  0  0  0
M  END
