symmetry c1
 OpenBabel03202517553D

 24 26  0  0  0  0  0  0  0  0999 V2000
    4.5120   -0.8445   -0.7754 C   0  0  0  0  0  0  0  0  0  0  0  0
    3.1644   -0.7720   -1.2140 O   0  0  0  0  0  0  0  0  0  0  0  0
    2.2633   -0.2933   -0.3157 C   0  0  0  0  0  0  0  0  0  0  0  0
    2.4985    0.1378    0.9676 C   0  0  0  0  0  0  0  0  0  0  0  0
    1.0258    0.6586    1.7292 S   0  0  0  0  0  0  0  0  0  0  0  0
    0.0888    0.3166    0.2826 C   0  0  0  0  0  0  0  0  0  0  0  0
   -1.3587    0.5380    0.2741 C   0  0  0  0  0  0  0  0  0  0  0  0
   -1.9397    1.6357    0.8817 C   0  0  0  0  0  0  0  0  0  0  0  0
   -3.3469    1.8714    0.8825 C   0  0  0  0  0  0  0  0  0  0  0  0
   -4.2256    1.0311    0.2497 C   0  0  0  0  0  0  0  0  0  0  0  0
   -3.6874   -0.1054   -0.4175 C   0  0  0  0  0  0  0  0  0  0  0  0
   -4.3924   -1.0238   -1.0899 N   0  0  0  0  0  0  0  0  0  0  0  0
   -3.3024   -2.1123   -1.6640 S   0  0  0  0  0  0  0  0  0  0  0  0
   -1.9086   -1.4618   -1.0830 N   0  0  0  0  0  0  0  0  0  0  0  0
   -2.2552   -0.3575   -0.4133 C   0  0  0  0  0  0  0  0  0  0  0  0
    0.8900   -0.2056   -0.7002 C   0  0  0  0  0  0  0  0  0  0  0  0
    4.8976    0.1495   -0.5104 H   0  0  0  0  0  0  0  0  0  0  0  0
    4.6123   -1.5120    0.0913 H   0  0  0  0  0  0  0  0  0  0  0  0
    5.0854   -1.2461   -1.6126 H   0  0  0  0  0  0  0  0  0  0  0  0
    3.4303    0.1745    1.5116 H   0  0  0  0  0  0  0  0  0  0  0  0
   -1.2974    2.3571    1.3787 H   0  0  0  0  0  0  0  0  0  0  0  0
   -5.2958    1.2061    0.2374 H   0  0  0  0  0  0  0  0  0  0  0  0
    0.5310   -0.5213   -1.6708 H   0  0  0  0  0  0  0  0  0  0  0  0
   -3.7185    2.7553    1.3933 H   0  0  0  0  0  0  0  0  0  0  0  0
  1 17  1  0  0  0  0
  1 18  1  0  0  0  0
  2  1  1  0  0  0  0
  2  3  1  0  0  0  0
  3  4  2  0  0  0  0
  4 20  1  0  0  0  0
  4  5  1  0  0  0  0
  6  5  1  0  0  0  0
  7  6  1  0  0  0  0
  7  8  2  0  0  0  0
  8  9  1  0  0  0  0
  8 21  1  0  0  0  0
  9 24  1  0  0  0  0
 10  9  2  0  0  0  0
 11 15  1  0  0  0  0
 11 10  1  0  0  0  0
 12 11  2  0  0  0  0
 13 12  1  0  0  0  0
 13 14  1  0  0  0  0
 14 15  2  0  0  0  0
 15  7  1  0  0  0  0
 16  3  1  0  0  0  0
 16  6  2  0  0  0  0
 19  1  1  0  0  0  0
 22 10  1  0  0  0  0
 23 16  1  0  0  0  0
M  END
