symmetry c1
 OpenBabel03202517553D

 24 26  0  0  0  0  0  0  0  0999 V2000
    4.6968   -0.1112   -0.4350 C   0  0  0  0  0  0  0  0  0  0  0  0
    3.4889    0.6223   -0.5653 O   0  0  0  0  0  0  0  0  0  0  0  0
    2.3457   -0.0404   -0.2399 C   0  0  0  0  0  0  0  0  0  0  0  0
    2.2096   -1.3345    0.2025 C   0  0  0  0  0  0  0  0  0  0  0  0
    0.5445   -1.7422    0.4714 S   0  0  0  0  0  0  0  0  0  0  0  0
    0.0146   -0.1341   -0.0023 C   0  0  0  0  0  0  0  0  0  0  0  0
   -1.3870    0.2866    0.0141 C   0  0  0  0  0  0  0  0  0  0  0  0
   -1.7507    1.6114   -0.1684 C   0  0  0  0  0  0  0  0  0  0  0  0
   -3.1027    2.0593   -0.1801 C   0  0  0  0  0  0  0  0  0  0  0  0
   -4.1602    1.2052    0.0028 C   0  0  0  0  0  0  0  0  0  0  0  0
   -3.8586   -0.1688    0.2095 C   0  0  0  0  0  0  0  0  0  0  0  0
   -4.7525   -1.1450    0.4130 N   0  0  0  0  0  0  0  0  0  0  0  0
   -3.8927   -2.5326    0.5978 S   0  0  0  0  0  0  0  0  0  0  0  0
   -2.3662   -1.9461    0.4248 N   0  0  0  0  0  0  0  0  0  0  0  0
   -2.4799   -0.6315    0.2159 C   0  0  0  0  0  0  0  0  0  0  0  0
    1.1004    0.6378   -0.3566 C   0  0  0  0  0  0  0  0  0  0  0  0
    4.8559   -0.4341    0.6029 H   0  0  0  0  0  0  0  0  0  0  0  0
    4.6993   -0.9929   -1.0900 H   0  0  0  0  0  0  0  0  0  0  0  0
    5.4998    0.5655   -0.7326 H   0  0  0  0  0  0  0  0  0  0  0  0
    2.9768   -2.0756    0.3718 H   0  0  0  0  0  0  0  0  0  0  0  0
   -0.9747    2.3576   -0.3018 H   0  0  0  0  0  0  0  0  0  0  0  0
   -5.1916    1.5394   -0.0002 H   0  0  0  0  0  0  0  0  0  0  0  0
    1.0421    1.6611   -0.7070 H   0  0  0  0  0  0  0  0  0  0  0  0
   -3.2868    3.1188   -0.3346 H   0  0  0  0  0  0  0  0  0  0  0  0
  1 17  1  0  0  0  0
  2  1  1  0  0  0  0
  2  3  1  0  0  0  0
  3  4  2  0  0  0  0
  4 20  1  0  0  0  0
  4  5  1  0  0  0  0
  6  7  1  0  0  0  0
  6  5  1  0  0  0  0
  7 15  1  0  0  0  0
  8  7  2  0  0  0  0
  9  8  1  0  0  0  0
  9 10  2  0  0  0  0
 10 11  1  0  0  0  0
 11 15  1  0  0  0  0
 11 12  2  0  0  0  0
 12 13  1  0  0  0  0
 14 13  1  0  0  0  0
 15 14  2  0  0  0  0
 16  3  1  0  0  0  0
 16  6  2  0  0  0  0
 18  1  1  0  0  0  0
 19  1  1  0  0  0  0
 21  8  1  0  0  0  0
 22 10  1  0  0  0  0
 23 16  1  0  0  0  0
 24  9  1  0  0  0  0
M  END
