symmetry c1
 OpenBabel03202517553D

 24 26  0  0  0  0  0  0  0  0999 V2000
    4.4958   -1.0146   -0.6640 C   0  0  0  0  0  0  0  0  0  0  0  0
    3.1158   -1.1674   -0.9573 O   0  0  0  0  0  0  0  0  0  0  0  0
    2.2612   -0.3669   -0.2667 C   0  0  0  0  0  0  0  0  0  0  0  0
    2.5693    0.5748    0.6835 C   0  0  0  0  0  0  0  0  0  0  0  0
    1.1344    1.3474    1.2861 S   0  0  0  0  0  0  0  0  0  0  0  0
    0.0991    0.3810    0.2354 C   0  0  0  0  0  0  0  0  0  0  0  0
   -1.3519    0.5570    0.2546 C   0  0  0  0  0  0  0  0  0  0  0  0
   -1.9743    1.4761    1.0834 C   0  0  0  0  0  0  0  0  0  0  0  0
   -3.3840    1.6729    1.1271 C   0  0  0  0  0  0  0  0  0  0  0  0
   -4.2448    0.9548    0.3385 C   0  0  0  0  0  0  0  0  0  0  0  0
   -3.6754   -0.0086   -0.5391 C   0  0  0  0  0  0  0  0  0  0  0  0
   -4.3629   -0.7953   -1.3762 N   0  0  0  0  0  0  0  0  0  0  0  0
   -3.2554   -1.7201   -2.1599 S   0  0  0  0  0  0  0  0  0  0  0  0
   -1.8741   -1.1577   -1.4681 N   0  0  0  0  0  0  0  0  0  0  0  0
   -2.2349   -0.2160   -0.5899 C   0  0  0  0  0  0  0  0  0  0  0  0
    0.8609   -0.4777   -0.5215 C   0  0  0  0  0  0  0  0  0  0  0  0
    4.8391    0.0047   -0.8879 H   0  0  0  0  0  0  0  0  0  0  0  0
    4.7054   -1.2413    0.3903 H   0  0  0  0  0  0  0  0  0  0  0  0
    5.0249   -1.7251   -1.3012 H   0  0  0  0  0  0  0  0  0  0  0  0
    3.5358    0.8647    1.0675 H   0  0  0  0  0  0  0  0  0  0  0  0
   -1.3660    2.0885    1.7428 H   0  0  0  0  0  0  0  0  0  0  0  0
   -5.3195    1.0955    0.3627 H   0  0  0  0  0  0  0  0  0  0  0  0
    0.4469   -1.1704   -1.2402 H   0  0  0  0  0  0  0  0  0  0  0  0
   -3.7745    2.4197    1.8127 H   0  0  0  0  0  0  0  0  0  0  0  0
  1 18  1  0  0  0  0
  2  1  1  0  0  0  0
  2  3  1  0  0  0  0
  3  4  2  0  0  0  0
  4 20  1  0  0  0  0
  4  5  1  0  0  0  0
  6  7  1  0  0  0  0
  6  5  1  0  0  0  0
  7  8  2  0  0  0  0
  8  9  1  0  0  0  0
  8 21  1  0  0  0  0
  9 24  1  0  0  0  0
 10 22  1  0  0  0  0
 10  9  2  0  0  0  0
 11 10  1  0  0  0  0
 12 11  2  0  0  0  0
 13 14  1  0  0  0  0
 13 12  1  0  0  0  0
 14 15  2  0  0  0  0
 15 11  1  0  0  0  0
 15  7  1  0  0  0  0
 16  3  1  0  0  0  0
 16  6  2  0  0  0  0
 17  1  1  0  0  0  0
 19  1  1  0  0  0  0
 23 16  1  0  0  0  0
M  END
