symmetry c1
 OpenBabel03202517553D

 24 26  0  0  0  0  0  0  0  0999 V2000
    4.5158   -0.8058   -0.7928 C   0  0  0  0  0  0  0  0  0  0  0  0
    3.1799   -0.6623   -1.2494 O   0  0  0  0  0  0  0  0  0  0  0  0
    2.2658   -0.2688   -0.3232 C   0  0  0  0  0  0  0  0  0  0  0  0
    2.4780    0.0181    1.0036 C   0  0  0  0  0  0  0  0  0  0  0  0
    0.9953    0.4789    1.7849 S   0  0  0  0  0  0  0  0  0  0  0  0
    0.0889    0.3119    0.2909 C   0  0  0  0  0  0  0  0  0  0  0  0
   -1.3610    0.5371    0.2798 C   0  0  0  0  0  0  0  0  0  0  0  0
   -1.9334    1.6674    0.8302 C   0  0  0  0  0  0  0  0  0  0  0  0
   -3.3403    1.9106    0.8168 C   0  0  0  0  0  0  0  0  0  0  0  0
   -4.2217    1.0438    0.2248 C   0  0  0  0  0  0  0  0  0  0  0  0
   -3.6894   -0.1278   -0.3844 C   0  0  0  0  0  0  0  0  0  0  0  0
   -4.3977   -1.0747   -1.0126 N   0  0  0  0  0  0  0  0  0  0  0  0
   -3.3105   -2.1945   -1.5298 S   0  0  0  0  0  0  0  0  0  0  0  0
   -1.9146   -1.5234   -0.9786 N   0  0  0  0  0  0  0  0  0  0  0  0
   -2.2588   -0.3862   -0.3648 C   0  0  0  0  0  0  0  0  0  0  0  0
    0.9022   -0.1172   -0.7245 C   0  0  0  0  0  0  0  0  0  0  0  0
    4.9108    0.1469   -0.4144 H   0  0  0  0  0  0  0  0  0  0  0  0
    4.5855   -1.5639   -0.0010 H   0  0  0  0  0  0  0  0  0  0  0  0
    5.1019   -1.1257   -1.6560 H   0  0  0  0  0  0  0  0  0  0  0  0
    3.3984   -0.0163    1.5669 H   0  0  0  0  0  0  0  0  0  0  0  0
   -1.2855    2.4058    1.2936 H   0  0  0  0  0  0  0  0  0  0  0  0
   -5.2910    1.2237    0.2019 H   0  0  0  0  0  0  0  0  0  0  0  0
    0.5606   -0.3223   -1.7310 H   0  0  0  0  0  0  0  0  0  0  0  0
   -3.7087    2.8207    1.2818 H   0  0  0  0  0  0  0  0  0  0  0  0
  1 17  1  0  0  0  0
  1 18  1  0  0  0  0
  2  1  1  0  0  0  0
  2  3  1  0  0  0  0
  3  4  2  0  0  0  0
  4 20  1  0  0  0  0
  4  5  1  0  0  0  0
  6  5  1  0  0  0  0
  7  6  1  0  0  0  0
  7  8  2  0  0  0  0
  8 21  1  0  0  0  0
  9  8  1  0  0  0  0
  9 24  1  0  0  0  0
 10  9  2  0  0  0  0
 11 15  1  0  0  0  0
 11 10  1  0  0  0  0
 12 11  2  0  0  0  0
 13 12  1  0  0  0  0
 13 14  1  0  0  0  0
 14 15  2  0  0  0  0
 15  7  1  0  0  0  0
 16  3  1  0  0  0  0
 16  6  2  0  0  0  0
 19  1  1  0  0  0  0
 22 10  1  0  0  0  0
 23 16  1  0  0  0  0
M  END
