symmetry c1
 OpenBabel03202517553D

 24 26  0  0  0  0  0  0  0  0999 V2000
    4.6437   -0.3147   -0.6895 C   0  0  0  0  0  0  0  0  0  0  0  0
    3.3863    0.1900   -1.1111 O   0  0  0  0  0  0  0  0  0  0  0  0
    2.3202   -0.1200   -0.3248 C   0  0  0  0  0  0  0  0  0  0  0  0
    2.3068   -0.8583    0.8321 C   0  0  0  0  0  0  0  0  0  0  0  0
    0.6952   -0.9888    1.4730 S   0  0  0  0  0  0  0  0  0  0  0  0
    0.0347   -0.0416    0.1554 C   0  0  0  0  0  0  0  0  0  0  0  0
   -1.3855    0.3541    0.1211 C   0  0  0  0  0  0  0  0  0  0  0  0
   -1.7711    1.6660    0.2984 C   0  0  0  0  0  0  0  0  0  0  0  0
   -3.1396    2.0798    0.2770 C   0  0  0  0  0  0  0  0  0  0  0  0
   -4.1646    1.1868    0.1035 C   0  0  0  0  0  0  0  0  0  0  0  0
   -3.8279   -0.1869   -0.0636 C   0  0  0  0  0  0  0  0  0  0  0  0
   -4.6936   -1.1931   -0.2404 N   0  0  0  0  0  0  0  0  0  0  0  0
   -3.7869   -2.5583   -0.3785 S   0  0  0  0  0  0  0  0  0  0  0  0
   -2.2776   -1.9262   -0.2225 N   0  0  0  0  0  0  0  0  0  0  0  0
   -2.4380   -0.6089   -0.0523 C   0  0  0  0  0  0  0  0  0  0  0  0
    1.0245    0.3561   -0.7023 C   0  0  0  0  0  0  0  0  0  0  0  0
    4.9157    0.0733    0.3016 H   0  0  0  0  0  0  0  0  0  0  0  0
    4.6399   -1.4127   -0.6569 H   0  0  0  0  0  0  0  0  0  0  0  0
    5.3733    0.0254   -1.4265 H   0  0  0  0  0  0  0  0  0  0  0  0
    3.1292   -1.3408    1.3388 H   0  0  0  0  0  0  0  0  0  0  0  0
   -1.0018    2.4152    0.4598 H   0  0  0  0  0  0  0  0  0  0  0  0
   -5.2059    1.4902    0.0941 H   0  0  0  0  0  0  0  0  0  0  0  0
    0.8542    0.9550   -1.5894 H   0  0  0  0  0  0  0  0  0  0  0  0
   -3.3605    3.1344    0.4154 H   0  0  0  0  0  0  0  0  0  0  0  0
  1 18  1  0  0  0  0
  1 17  1  0  0  0  0
  2  1  1  0  0  0  0
  2  3  1  0  0  0  0
  3  4  2  0  0  0  0
  4 20  1  0  0  0  0
  4  5  1  0  0  0  0
  6  5  1  0  0  0  0
  7  6  1  0  0  0  0
  7  8  2  0  0  0  0
  8 21  1  0  0  0  0
  9  8  1  0  0  0  0
  9 24  1  0  0  0  0
 10  9  2  0  0  0  0
 11 15  1  0  0  0  0
 11 10  1  0  0  0  0
 12 11  2  0  0  0  0
 13 12  1  0  0  0  0
 13 14  1  0  0  0  0
 14 15  2  0  0  0  0
 15  7  1  0  0  0  0
 16  3  1  0  0  0  0
 16  6  2  0  0  0  0
 19  1  1  0  0  0  0
 22 10  1  0  0  0  0
 23 16  1  0  0  0  0
M  END
