symmetry c1
 OpenBabel03202517553D

 24 26  0  0  0  0  0  0  0  0999 V2000
    4.5891   -0.5246   -0.7853 C   0  0  0  0  0  0  0  0  0  0  0  0
    3.3115   -0.1060   -1.2391 O   0  0  0  0  0  0  0  0  0  0  0  0
    2.3020   -0.1646   -0.3290 C   0  0  0  0  0  0  0  0  0  0  0  0
    2.3655   -0.5691    0.9804 C   0  0  0  0  0  0  0  0  0  0  0  0
    0.8037   -0.4635    1.7403 S   0  0  0  0  0  0  0  0  0  0  0  0
    0.0653    0.1348    0.2694 C   0  0  0  0  0  0  0  0  0  0  0  0
   -1.3771    0.4605    0.2197 C   0  0  0  0  0  0  0  0  0  0  0  0
   -1.8532    1.7171    0.5210 C   0  0  0  0  0  0  0  0  0  0  0  0
   -3.2439    2.0500    0.4713 C   0  0  0  0  0  0  0  0  0  0  0  0
   -4.1963    1.1293    0.1213 C   0  0  0  0  0  0  0  0  0  0  0  0
   -3.7622   -0.1892   -0.1981 C   0  0  0  0  0  0  0  0  0  0  0  0
   -4.5491   -1.2109   -0.5591 N   0  0  0  0  0  0  0  0  0  0  0  0
   -3.5481   -2.4915   -0.8102 S   0  0  0  0  0  0  0  0  0  0  0  0
   -2.0950   -1.8013   -0.4744 N   0  0  0  0  0  0  0  0  0  0  0  0
   -2.3509   -0.5288   -0.1494 C   0  0  0  0  0  0  0  0  0  0  0  0
    0.9879    0.2375   -0.7331 C   0  0  0  0  0  0  0  0  0  0  0  0
    4.9407    0.1025    0.0454 H   0  0  0  0  0  0  0  0  0  0  0  0
    4.5705   -1.5738   -0.4603 H   0  0  0  0  0  0  0  0  0  0  0  0
    5.2665   -0.4179   -1.6342 H   0  0  0  0  0  0  0  0  0  0  0  0
    3.2183   -0.9181    1.5431 H   0  0  0  0  0  0  0  0  0  0  0  0
   -1.1431    2.4876    0.8069 H   0  0  0  0  0  0  0  0  0  0  0  0
   -5.2529    1.3714    0.0816 H   0  0  0  0  0  0  0  0  0  0  0  0
    0.7615    0.5794   -1.7363 H   0  0  0  0  0  0  0  0  0  0  0  0
   -3.5400    3.0649    0.7209 H   0  0  0  0  0  0  0  0  0  0  0  0
  1 18  1  0  0  0  0
  1 17  1  0  0  0  0
  2  1  1  0  0  0  0
  2  3  1  0  0  0  0
  3  4  2  0  0  0  0
  4 20  1  0  0  0  0
  4  5  1  0  0  0  0
  6  5  1  0  0  0  0
  7  6  1  0  0  0  0
  7  8  2  0  0  0  0
  8 21  1  0  0  0  0
  9  8  1  0  0  0  0
  9 24  1  0  0  0  0
 10  9  2  0  0  0  0
 11 15  1  0  0  0  0
 11 10  1  0  0  0  0
 12 11  2  0  0  0  0
 13 12  1  0  0  0  0
 13 14  1  0  0  0  0
 14 15  2  0  0  0  0
 15  7  1  0  0  0  0
 16  3  1  0  0  0  0
 16  6  2  0  0  0  0
 19  1  1  0  0  0  0
 22 10  1  0  0  0  0
 23 16  1  0  0  0  0
M  END
