symmetry c1
 OpenBabel03202517553D

 24 26  0  0  0  0  0  0  0  0999 V2000
    4.5369   -0.7005   -0.8148 C   0  0  0  0  0  0  0  0  0  0  0  0
    3.2290   -0.4099   -1.2826 O   0  0  0  0  0  0  0  0  0  0  0  0
    2.2781   -0.2169   -0.3298 C   0  0  0  0  0  0  0  0  0  0  0  0
    2.4280   -0.2576    1.0345 C   0  0  0  0  0  0  0  0  0  0  0  0
    0.9163    0.0577    1.8343 S   0  0  0  0  0  0  0  0  0  0  0  0
    0.0852    0.2689    0.3058 C   0  0  0  0  0  0  0  0  0  0  0  0
   -1.3672    0.5244    0.2753 C   0  0  0  0  0  0  0  0  0  0  0  0
   -1.9119    1.7162    0.7043 C   0  0  0  0  0  0  0  0  0  0  0  0
   -3.3152    1.9867    0.6609 C   0  0  0  0  0  0  0  0  0  0  0  0
   -4.2130    1.0771    0.1670 C   0  0  0  0  0  0  0  0  0  0  0  0
   -3.7067   -0.1668   -0.3073 C   0  0  0  0  0  0  0  0  0  0  0  0
   -4.4342   -1.1648   -0.8249 N   0  0  0  0  0  0  0  0  0  0  0  0
   -3.3676   -2.3559   -1.2101 S   0  0  0  0  0  0  0  0  0  0  0  0
   -1.9585   -1.6541   -0.7386 N   0  0  0  0  0  0  0  0  0  0  0  0
   -2.2819   -0.4481   -0.2581 C   0  0  0  0  0  0  0  0  0  0  0  0
    0.9386    0.0703   -0.7438 C   0  0  0  0  0  0  0  0  0  0  0  0
    4.9323    0.1228   -0.2043 H   0  0  0  0  0  0  0  0  0  0  0  0
    4.5501   -1.6256   -0.2226 H   0  0  0  0  0  0  0  0  0  0  0  0
    5.1592   -0.8271   -1.7023 H   0  0  0  0  0  0  0  0  0  0  0  0
    3.3182   -0.4488    1.6146 H   0  0  0  0  0  0  0  0  0  0  0  0
   -1.2465    2.4819    1.0925 H   0  0  0  0  0  0  0  0  0  0  0  0
   -5.2787    1.2746    0.1241 H   0  0  0  0  0  0  0  0  0  0  0  0
    0.6458    0.1228   -1.7856 H   0  0  0  0  0  0  0  0  0  0  0  0
   -3.6655    2.9487    1.0241 H   0  0  0  0  0  0  0  0  0  0  0  0
  1 18  1  0  0  0  0
  1 17  1  0  0  0  0
  2  1  1  0  0  0  0
  2  3  1  0  0  0  0
  3  4  2  0  0  0  0
  4 20  1  0  0  0  0
  4  5  1  0  0  0  0
  6  5  1  0  0  0  0
  7  6  1  0  0  0  0
  7  8  2  0  0  0  0
  8 21  1  0  0  0  0
  9  8  1  0  0  0  0
  9 24  1  0  0  0  0
 10  9  2  0  0  0  0
 11 15  1  0  0  0  0
 11 10  1  0  0  0  0
 12 11  2  0  0  0  0
 13 12  1  0  0  0  0
 13 14  1  0  0  0  0
 14 15  2  0  0  0  0
 15  7  1  0  0  0  0
 16  3  1  0  0  0  0
 16  6  2  0  0  0  0
 19  1  1  0  0  0  0
 22 10  1  0  0  0  0
 23 16  1  0  0  0  0
M  END
