symmetry c1
 OpenBabel03202517553D

 24 26  0  0  0  0  0  0  0  0999 V2000
    4.7023   -0.0999   -0.3833 C   0  0  0  0  0  0  0  0  0  0  0  0
    3.5005    0.6521   -0.4488 O   0  0  0  0  0  0  0  0  0  0  0  0
    2.3484   -0.0360   -0.2218 C   0  0  0  0  0  0  0  0  0  0  0  0
    2.1978   -1.3714    0.0654 C   0  0  0  0  0  0  0  0  0  0  0  0
    0.5275   -1.7920    0.2756 S   0  0  0  0  0  0  0  0  0  0  0  0
    0.0130   -0.1377   -0.0289 C   0  0  0  0  0  0  0  0  0  0  0  0
   -1.3887    0.2830   -0.0134 C   0  0  0  0  0  0  0  0  0  0  0  0
   -1.7587    1.5960   -0.2591 C   0  0  0  0  0  0  0  0  0  0  0  0
   -3.1101    2.0454   -0.2532 C   0  0  0  0  0  0  0  0  0  0  0  0
   -4.1628    1.2032   -0.0005 C   0  0  0  0  0  0  0  0  0  0  0  0
   -3.8560   -0.1601    0.2605 C   0  0  0  0  0  0  0  0  0  0  0  0
   -4.7447   -1.1258    0.5271 N   0  0  0  0  0  0  0  0  0  0  0  0
   -3.8813   -2.5052    0.7502 S   0  0  0  0  0  0  0  0  0  0  0  0
   -2.3593   -1.9277    0.5178 N   0  0  0  0  0  0  0  0  0  0  0  0
   -2.4774   -0.6233    0.2552 C   0  0  0  0  0  0  0  0  0  0  0  0
    1.1095    0.6610   -0.2748 C   0  0  0  0  0  0  0  0  0  0  0  0
    4.8421   -0.5401    0.6134 H   0  0  0  0  0  0  0  0  0  0  0  0
    4.7113   -0.9013   -1.1345 H   0  0  0  0  0  0  0  0  0  0  0  0
    5.5137    0.6005   -0.5886 H   0  0  0  0  0  0  0  0  0  0  0  0
    2.9584   -2.1315    0.1670 H   0  0  0  0  0  0  0  0  0  0  0  0
   -0.9895    2.3316   -0.4686 H   0  0  0  0  0  0  0  0  0  0  0  0
   -5.1940    1.5381    0.0057 H   0  0  0  0  0  0  0  0  0  0  0  0
    1.0665    1.7214   -0.4915 H   0  0  0  0  0  0  0  0  0  0  0  0
   -3.2978    3.0957   -0.4582 H   0  0  0  0  0  0  0  0  0  0  0  0
  1 17  1  0  0  0  0
  2  1  1  0  0  0  0
  2  3  1  0  0  0  0
  3  4  2  0  0  0  0
  4 20  1  0  0  0  0
  4  5  1  0  0  0  0
  6  7  1  0  0  0  0
  6  5  1  0  0  0  0
  7 15  1  0  0  0  0
  8  9  1  0  0  0  0
  8  7  2  0  0  0  0
  9 10  2  0  0  0  0
 10 22  1  0  0  0  0
 10 11  1  0  0  0  0
 11 12  2  0  0  0  0
 12 13  1  0  0  0  0
 14 13  1  0  0  0  0
 15 11  1  0  0  0  0
 15 14  2  0  0  0  0
 16  3  1  0  0  0  0
 16  6  2  0  0  0  0
 18  1  1  0  0  0  0
 19  1  1  0  0  0  0
 21  8  1  0  0  0  0
 23 16  1  0  0  0  0
 24  9  1  0  0  0  0
M  END
