symmetry c1
 OpenBabel03202517553D

 24 26  0  0  0  0  0  0  0  0999 V2000
    4.5054   -0.9245   -0.7325 C   0  0  0  0  0  0  0  0  0  0  0  0
    3.1391   -0.9740   -1.1128 O   0  0  0  0  0  0  0  0  0  0  0  0
    2.2624   -0.3346   -0.2941 C   0  0  0  0  0  0  0  0  0  0  0  0
    2.5373    0.3606    0.8580 C   0  0  0  0  0  0  0  0  0  0  0  0
    1.0837    1.0001    1.5633 S   0  0  0  0  0  0  0  0  0  0  0  0
    0.0918    0.3337    0.2696 C   0  0  0  0  0  0  0  0  0  0  0  0
   -1.3547    0.5448    0.2626 C   0  0  0  0  0  0  0  0  0  0  0  0
   -1.9564    1.5642    0.9804 C   0  0  0  0  0  0  0  0  0  0  0  0
   -3.3642    1.7838    1.0034 C   0  0  0  0  0  0  0  0  0  0  0  0
   -4.2355    1.0002    0.2927 C   0  0  0  0  0  0  0  0  0  0  0  0
   -3.6829   -0.0588   -0.4803 C   0  0  0  0  0  0  0  0  0  0  0  0
   -4.3810   -0.9172   -1.2340 N   0  0  0  0  0  0  0  0  0  0  0  0
   -3.2849   -1.9358   -1.9121 S   0  0  0  0  0  0  0  0  0  0  0  0
   -1.8960   -1.3275   -1.2761 N   0  0  0  0  0  0  0  0  0  0  0  0
   -2.2468   -0.2940   -0.5035 C   0  0  0  0  0  0  0  0  0  0  0  0
    0.8735   -0.3561   -0.6253 C   0  0  0  0  0  0  0  0  0  0  0  0
    4.8716    0.1108   -0.7005 H   0  0  0  0  0  0  0  0  0  0  0  0
    4.6618   -1.3919    0.2492 H   0  0  0  0  0  0  0  0  0  0  0  0
    5.0553   -1.4818   -1.4927 H   0  0  0  0  0  0  0  0  0  0  0  0
    3.4882    0.5288    1.3408 H   0  0  0  0  0  0  0  0  0  0  0  0
   -1.3304    2.2444    1.5509 H   0  0  0  0  0  0  0  0  0  0  0  0
   -5.3077    1.1615    0.2985 H   0  0  0  0  0  0  0  0  0  0  0  0
    0.4844   -0.8688   -1.4937 H   0  0  0  0  0  0  0  0  0  0  0  0
   -3.7435    2.6080    1.6010 H   0  0  0  0  0  0  0  0  0  0  0  0
  1 17  1  0  0  0  0
  1 18  1  0  0  0  0
  2  1  1  0  0  0  0
  2  3  1  0  0  0  0
  3  4  2  0  0  0  0
  4 20  1  0  0  0  0
  4  5  1  0  0  0  0
  6  5  1  0  0  0  0
  7  6  1  0  0  0  0
  7  8  2  0  0  0  0
  8  9  1  0  0  0  0
  8 21  1  0  0  0  0
  9 24  1  0  0  0  0
 10 22  1  0  0  0  0
 10  9  2  0  0  0  0
 11 10  1  0  0  0  0
 12 11  2  0  0  0  0
 13 14  1  0  0  0  0
 13 12  1  0  0  0  0
 14 15  2  0  0  0  0
 15 11  1  0  0  0  0
 15  7  1  0  0  0  0
 16  3  1  0  0  0  0
 16  6  2  0  0  0  0
 19  1  1  0  0  0  0
 23 16  1  0  0  0  0
M  END
