35
symmetry c1
C        4.672951000     -1.791472000     -1.106215000
O        4.443213000     -0.537126000     -0.495056000
C        3.171607000     -0.251210000     -0.086691000
C        3.014267000      1.035947000      0.525776000
O        4.167412000      1.769907000      0.603300000
C        4.087690000      3.050983000      1.195963000
C        1.775788000      1.452402000      0.983716000
C        2.087654000     -1.105783000     -0.230892000
C        0.838645000     -0.667783000      0.238808000
C        0.658735000      0.598972000      0.842876000
C       -0.725941000      0.702880000      1.191242000
C       -1.345324000     -0.465010000      0.802524000
N       -0.385069000     -1.298389000      0.231246000
C       -2.743316000     -0.880013000      0.901440000
C       -3.809342000     -0.489539000      0.115025000
O       -3.611804000      0.357360000     -0.932192000
C       -4.749521000      0.726975000     -1.695543000
C       -5.060434000     -1.063954000      0.514552000
C       -4.932841000     -1.881228000      1.603501000
S       -3.302834000     -1.961723000      2.168169000
H        4.085771000     -1.907631000     -2.028154000
H        4.438391000     -2.623227000     -0.426995000
H        5.736631000     -1.815910000     -1.351416000
H        5.098636000      3.462368000      1.159641000
H        3.406554000      3.713281000      0.643045000
H        3.756300000      2.995093000      2.242545000
H        1.655330000      2.425179000      1.446400000
H        2.198227000     -2.081010000     -0.690675000
H       -1.218414000      1.534825000      1.675578000
H       -0.592059000     -2.191541000     -0.188202000
H       -4.383974000      1.404641000     -2.469250000
H       -5.218937000     -0.144550000     -2.171726000
H       -5.496255000      1.248663000     -1.082042000
H       -6.004694000     -0.881984000      0.016461000
H       -5.713062000     -2.440415000      2.102374000











