35
symmetry c1
C        4.107516000     -1.091761000     -2.081615000
O        4.150171000     -0.216738000     -0.971801000
C        2.976410000      0.050331000     -0.325997000
C        3.095874000      0.941530000      0.790797000
O        4.370215000      1.380984000      1.029790000
C        4.563991000      2.264344000      2.116507000
C        1.981869000      1.296228000      1.533199000
C        1.742595000     -0.476175000     -0.684985000
C        0.624088000     -0.109143000      0.078690000
C        0.717108000      0.772706000      1.183091000
C       -0.603564000      0.929655000      1.703548000
C       -1.452995000      0.158552000      0.927355000
N       -0.694596000     -0.482350000     -0.045735000
C       -2.875078000     -0.075418000      1.036960000
C       -3.737520000     -0.636570000      0.108716000
O       -3.260240000     -1.038227000     -1.114530000
C       -4.209520000     -1.513591000     -2.059007000
C       -5.088433000     -0.741247000      0.561337000
C       -5.244643000     -0.274774000      1.837379000
S       -3.749676000      0.282136000      2.511130000
H        3.468741000     -0.698174000     -2.884973000
H        3.747835000     -2.090855000     -1.797572000
H        5.134808000     -1.168371000     -2.443561000
H        5.632287000      2.490272000      2.133259000
H        3.997897000      3.197768000      1.987965000
H        4.275802000      1.803343000      3.071847000
H        2.070972000      1.970570000      2.377062000
H        1.643142000     -1.152088000     -1.526328000
H       -0.901490000      1.540710000      2.545183000
H       -1.106255000     -1.031336000     -0.785325000
H       -3.646403000     -1.743345000     -2.965449000
H       -4.708808000     -2.423990000     -1.702539000
H       -4.963956000     -0.749377000     -2.284943000
H       -5.903943000     -1.138304000     -0.030302000
H       -6.154219000     -0.227319000      2.419977000
























