35
symmetry c1
C        4.956425000     -2.011160000     -0.204643000
O        4.597079000     -0.655873000     -0.020222000
C        3.270153000     -0.360462000      0.110445000
C        2.980598000      1.030160000      0.300365000
O        4.084212000      1.839750000      0.324072000
C        3.874282000      3.226046000      0.505878000
C        1.673309000      1.465982000      0.442785000
C        2.246586000     -1.299366000      0.071327000
C        0.930135000     -0.840289000      0.218262000
C        0.618311000      0.527736000      0.396647000
C       -0.804466000      0.626498000      0.495091000
C       -1.322551000     -0.651404000      0.380066000
N       -0.258399000     -1.542088000      0.232546000
C       -2.689347000     -1.117031000      0.403852000
C       -3.853846000     -0.397232000      0.184758000
O       -3.791954000      0.936181000     -0.092953000
C       -5.008335000      1.589912000     -0.421701000
C       -5.042514000     -1.186824000      0.276540000
C       -4.784206000     -2.496709000      0.570646000
S       -3.088517000     -2.788510000      0.767369000
H        4.520663000     -2.425303000     -1.124875000
H        4.647418000     -2.632875000      0.647463000
H        6.045271000     -2.025003000     -0.284215000
H        4.865545000      3.684094000      0.493817000
H        3.266664000      3.655036000     -0.303454000
H        3.387158000      3.441041000      1.467489000
H        1.452819000      2.517568000      0.585288000
H        2.456694000     -2.353795000     -0.065770000
H       -1.391669000      1.518595000      0.651428000
H       -0.361656000     -2.505466000     -0.048375000
H       -4.742179000      2.623881000     -0.648449000
H       -5.484163000      1.136940000     -1.301555000
H       -5.714170000      1.575404000      0.419582000
H       -6.043171000     -0.801164000      0.125502000
H       -5.492202000     -3.304292000      0.694125000
