35
symmetry c1
C        4.977808000     -2.022704000     -0.043808000
O        4.609055000     -0.662052000      0.068283000
C        3.277900000     -0.366711000      0.144731000
C        2.978508000      1.029812000      0.262287000
O        4.078489000      1.844554000      0.281931000
C        3.858999000      3.236471000      0.396975000
C        1.666207000      1.465859000      0.345398000
C        2.258759000     -1.310964000      0.116843000
C        0.937300000     -0.851358000      0.203717000
C        0.615907000      0.521708000      0.311282000
C       -0.808916000      0.618687000      0.362666000
C       -1.320665000     -0.666284000      0.288147000
N       -0.248785000     -1.556681000      0.213450000
C       -2.686498000     -1.133418000      0.304928000
C       -3.855774000     -0.397572000      0.177874000
O       -3.799465000      0.956897000      0.030693000
C       -5.026484000      1.642532000     -0.167625000
C       -5.042851000     -1.193258000      0.214078000
C       -4.780842000     -2.525930000      0.368771000
S       -3.081037000     -2.834270000      0.492694000
H        4.571882000     -2.479607000     -0.957419000
H        4.644400000     -2.606796000      0.825552000
H        6.068628000     -2.035462000     -0.089171000
H        4.848797000      3.697844000      0.395065000
H        3.275044000      3.627475000     -0.448239000
H        3.342147000      3.490756000      1.333153000
H        1.438238000      2.521840000      0.433103000
H        2.476148000     -2.369553000      0.033622000
H       -1.402696000      1.514116000      0.461138000
H       -0.334945000     -2.537575000     -0.004938000
H       -4.766310000      2.695460000     -0.289880000
H       -5.543370000      1.290112000     -1.070029000
H       -5.693341000      1.533564000      0.698067000
H       -6.045983000     -0.794793000      0.126343000
H       -5.486272000     -3.342720000      0.429446000

