35
symmetry c1
C        4.060958000     -0.877531000     -2.232154000
O        4.127686000     -0.114761000     -1.043557000
C        2.961270000      0.123424000     -0.373442000
C        3.104673000      0.902978000      0.821421000
O        4.390573000      1.283106000      1.097542000
C        4.608135000      2.055395000      2.261581000
C        2.000688000      1.217350000      1.596171000
C        1.713402000     -0.331954000     -0.778091000
C        0.604754000     -0.005068000      0.017535000
C        0.722000000      0.763449000      1.201655000
C       -0.591818000      0.896952000      1.743567000
C       -1.462553000      0.224267000      0.900649000
N       -0.724539000     -0.319539000     -0.144070000
C       -2.893513000      0.043200000      0.975506000
C       -3.734611000     -0.639515000      0.109941000
O       -3.220717000     -1.261544000     -1.001896000
C       -4.135375000     -1.945569000     -1.847293000
C       -5.109627000     -0.614512000      0.496352000
C       -5.310288000      0.086072000      1.653040000
S       -3.831020000      0.725060000      2.288444000
H        3.433793000     -0.390873000     -2.992508000
H        3.673296000     -1.888914000     -2.044684000
H        5.085855000     -0.947774000     -2.602119000
H        5.682215000      2.249532000      2.297052000
H        4.067829000      3.011831000      2.222071000
H        4.307042000      1.515178000      3.170299000
H        2.108249000      1.806471000      2.499599000
H        1.595375000     -0.921670000     -1.679695000
H       -0.869551000      1.424380000      2.646483000
H       -1.143052000     -0.857374000     -0.887854000
H       -3.540595000     -2.366122000     -2.660203000
H       -4.643037000     -2.758126000     -1.311980000
H       -4.884122000     -1.259614000     -2.263676000
H       -5.909746000     -1.091917000     -0.055459000
H       -6.243651000      0.263711000      2.168902000




























