35
symmetry c1
C        4.931486000     -1.993325000     -0.347386000
O        4.582955000     -0.645724000     -0.097547000
C        3.261016000     -0.351711000      0.079012000
C        2.982430000      1.030899000      0.333649000
O        4.089801000      1.835134000      0.362448000
C        3.890700000      3.213236000      0.607735000
C        1.681180000      1.464714000      0.527483000
C        2.232905000     -1.284674000      0.027089000
C        0.922128000     -0.827802000      0.225658000
C        0.621187000      0.532809000      0.469407000
C       -0.798440000      0.631610000      0.610255000
C       -1.323846000     -0.637844000      0.457600000
N       -0.268828000     -1.524500000      0.238660000
C       -2.692990000     -1.100900000      0.481604000
C       -3.849368000     -0.400140000      0.179828000
O       -3.776909000      0.900820000     -0.220830000
C       -4.982390000      1.519569000     -0.643690000
C       -5.043620000     -1.173529000      0.329135000
C       -4.795570000     -2.448849000      0.754928000
S       -3.105572000     -2.725301000      1.009680000
H        4.470503000     -2.367204000     -1.272546000
H        4.641576000     -2.649009000      0.485764000
H        6.017871000     -2.007479000     -0.455398000
H        4.883354000      3.668054000      0.589564000
H        3.264593000      3.677984000     -0.167023000
H        3.429145000      3.389108000      1.589688000
H        1.469097000      2.510151000      0.719444000
H        2.434855000     -2.333181000     -0.158881000
H       -1.377924000      1.519301000      0.815764000
H       -0.387506000     -2.477914000     -0.068617000
H       -4.707124000      2.526072000     -0.963964000
H       -5.437138000      0.982778000     -1.486853000
H       -5.709939000      1.588520000      0.176198000
H       -6.039764000     -0.802389000      0.122171000
H       -5.509872000     -3.239305000      0.939101000

