35
symmetry c1
C        4.081297000     -0.988180000     -2.158515000
O        4.137192000     -0.166816000     -1.009038000
C        2.967780000      0.086169000     -0.349682000
C        3.100465000      0.923753000      0.806481000
O        4.380886000      1.334903000      1.062845000
C        4.587860000      2.164609000      2.188676000
C        1.992330000      1.258839000      1.566516000
C        1.726521000     -0.406396000     -0.730445000
C        0.613780000     -0.058951000      0.050632000
C        0.720172000      0.768490000      1.195367000
C       -0.596320000      0.914165000      1.728095000
C       -1.457426000      0.189922000      0.919103000
N       -0.710291000     -0.403982000     -0.091403000
C       -2.883860000     -0.018644000      1.011381000
C       -3.734919000     -0.640406000      0.110732000
O       -3.238131000     -1.154029000     -1.062327000
C       -4.169663000     -1.730621000     -1.967255000
C       -5.099311000     -0.677540000      0.532222000
C       -5.280195000     -0.091703000      1.754291000
S       -3.793581000      0.504569000      2.413449000
H        3.446880000     -0.548829000     -2.941341000
H        3.708509000     -1.994601000     -1.920960000
H        5.107009000     -1.061588000     -2.525589000
H        5.659116000      2.375239000      2.213763000
H        4.034185000      3.110441000      2.104316000
H        4.294713000      1.663996000      3.122330000
H        2.091650000      1.892190000      2.440468000
H        1.616838000     -1.040931000     -1.602181000
H       -0.882808000      1.486133000      2.600634000
H       -1.126795000     -0.947423000     -0.832257000
H       -3.589831000     -2.055975000     -2.832945000
H       -4.674864000     -2.598024000     -1.523142000
H       -4.919948000     -0.997060000     -2.288654000
H       -5.906402000     -1.114465000     -0.042534000
H       -6.202855000      0.022728000      2.306095000


























