35
symmetry c1
C        4.380191000     -1.565018000     -1.570536000
O        4.297713000     -0.441747000     -0.715449000
C        3.077221000     -0.132836000     -0.186003000
C        3.069807000      1.016009000      0.672160000
O        4.290337000      1.617569000      0.822285000
C        4.358510000      2.758412000      1.654631000
C        1.896671000      1.439340000      1.273737000
C        1.910628000     -0.844427000     -0.429574000
C        0.730657000     -0.403894000      0.191103000
C        0.698190000      0.729990000      1.037043000
C       -0.656715000      0.887409000      1.470728000
C       -1.402782000     -0.117365000      0.890476000
N       -0.545352000     -0.918770000      0.140235000
C       -2.809193000     -0.467044000      1.055880000
C       -3.787062000     -0.567050000      0.084721000
O       -3.492337000     -0.252776000     -1.210334000
C       -4.570749000     -0.223783000     -2.133186000
C       -5.050830000     -1.019860000      0.582369000
C       -5.012558000     -1.287863000      1.923687000
S       -3.446775000     -1.006911000      2.597252000
H        3.748334000     -1.444139000     -2.461808000
H        4.093203000     -2.491283000     -1.053011000
H        5.425893000     -1.633052000     -1.877147000
H        5.402129000      3.079612000      1.639320000
H        3.722712000      3.573380000      1.280667000
H        4.065796000      2.525783000      2.688289000
H        1.889184000      2.308687000      1.921085000
H        1.907727000     -1.714663000     -1.075610000
H       -1.048357000      1.652392000      2.127425000
H       -0.859313000     -1.670507000     -0.453771000
H       -4.142884000      0.093158000     -3.086146000
H       -5.026725000     -1.215779000     -2.254992000
H       -5.343617000      0.493376000     -1.826927000
H       -5.942828000     -1.133125000     -0.021395000
H       -5.826844000     -1.623245000      2.551926000
















