35
symmetry c1
C        4.575028000     -1.726908000     -1.271262000
O        4.395558000     -0.509448000     -0.574663000
C        3.141581000     -0.214590000     -0.120691000
C        3.035331000      1.033904000      0.577017000
O        4.211094000      1.728370000      0.675523000
C        4.181931000      2.969317000      1.352285000
C        1.819525000      1.454511000      1.088628000
C        2.029892000     -1.026533000     -0.296024000
C        0.804543000     -0.585497000      0.230103000
C        0.675136000      0.643613000      0.918919000
C       -0.698934000      0.764389000      1.302327000
C       -1.361615000     -0.355191000      0.848265000
N       -0.436881000     -1.179833000      0.210282000
C       -2.763850000     -0.751154000      0.977389000
C       -3.804620000     -0.516977000      0.100652000
O       -3.580976000      0.165464000     -1.056288000
C       -4.702747000      0.429988000     -1.884371000
C       -5.058647000     -1.056569000      0.537256000
C       -4.955175000     -1.701730000      1.738855000
S       -3.344602000     -1.664241000      2.360240000
H        3.966234000     -1.765121000     -2.185666000
H        4.329097000     -2.594468000     -0.642743000
H        5.632357000     -1.765796000     -1.540850000
H        5.203812000      3.353117000      1.320370000
H        3.509856000      3.685895000      0.859198000
H        3.870397000      2.853932000      2.400093000
H        1.737508000      2.398309000      1.615329000
H        2.101821000     -1.972089000     -0.820867000
H       -1.156913000      1.577722000      1.848425000
H       -0.677778000     -2.040947000     -0.255403000
H       -4.320504000      0.998019000     -2.734503000
H       -5.165313000     -0.497261000     -2.249049000
H       -5.459592000      1.028882000     -1.360502000
H       -5.988037000     -0.968771000     -0.011746000
H       -5.744537000     -2.192326000      2.292604000













