35
symmetry c1
C        4.472937000     -1.650776000     -1.428294000
O        4.345379000     -0.478198000     -0.648243000
C        3.109109000     -0.173682000     -0.153939000
C        3.055825000      1.027288000      0.628053000
O        4.255795000      1.674418000      0.752877000
C        4.278944000      2.866834000      1.512130000
C        1.862732000      1.452021000      1.187654000
C        1.967877000     -0.934799000     -0.364538000
C        0.766624000     -0.491258000      0.212282000
C        0.689245000      0.692259000      0.983892000
C       -0.674635000      0.833086000      1.395416000
C       -1.382348000     -0.229211000      0.874864000
N       -0.493616000     -1.043948000      0.176588000
C       -2.786903000     -0.603100000      1.028444000
C       -3.797985000     -0.542305000      0.089389000
O       -3.543964000     -0.041522000     -1.152504000
C       -4.646468000      0.100372000     -2.035105000
C       -5.053953000     -1.045217000      0.560695000
C       -4.978594000     -1.501504000      1.848236000
S       -3.390372000     -1.333563000      2.505090000
H        3.849698000     -1.606678000     -2.332645000
H        4.206989000     -2.550456000     -0.855559000
H        5.524215000     -1.706065000     -1.717937000
H        5.312735000      3.217949000      1.488783000
H        3.624516000      3.637050000      1.079947000
H        3.979115000      2.690875000      2.554913000
H        1.820643000      2.360312000      1.777693000
H        1.999638000     -1.844131000     -0.953426000
H       -1.097167000      1.624063000      1.999950000
H       -0.771764000     -1.858890000     -0.347694000
H       -4.245395000      0.545876000     -2.947369000
H       -5.099607000     -0.870634000     -2.277233000
H       -5.415608000      0.763081000     -1.616834000
H       -5.965818000     -1.061979000     -0.023399000
H       -5.777838000     -1.917590000      2.446953000















