35
symmetry c1
C        4.295401000     -1.472244000     -1.701556000
O        4.251809000     -0.400251000     -0.780296000
C        3.045644000     -0.092063000     -0.218582000
C        3.077986000      1.001832000      0.707848000
O        4.315733000      1.560597000      0.880182000
C        4.422897000      2.647132000      1.778522000
C        1.922753000      1.418460000      1.347899000
C        1.857627000     -0.756796000     -0.490813000
C        0.696726000     -0.324460000      0.169446000
C        0.703202000      0.757210000      1.081845000
C       -0.643146000      0.926882000      1.536023000
C       -1.421509000     -0.022197000      0.904227000
N       -0.592346000     -0.805887000      0.105442000
C       -2.830330000     -0.346482000      1.069981000
C       -3.773472000     -0.586442000      0.088155000
O       -3.429571000     -0.453131000     -1.228415000
C       -4.476845000     -0.537205000     -2.183877000
C       -5.051362000     -0.979219000      0.597439000
C       -5.057956000     -1.069142000      1.963021000
S       -3.513976000     -0.696348000      2.644801000
H        3.658028000     -1.281836000     -2.576613000
H        3.988888000     -2.419887000     -1.236644000
H        5.335735000     -1.549184000     -2.023907000
H        5.474496000      2.941424000      1.770022000
H        3.805203000      3.499336000      1.461612000
H        4.134822000      2.360393000      2.799806000
H        1.945267000      2.246534000      2.046929000
H        1.824781000     -1.586459000     -1.187403000
H       -1.007283000      1.662886000      2.240102000
H       -0.940184000     -1.480242000     -0.558906000
H       -4.015097000     -0.348866000     -3.154978000
H       -4.938855000     -1.533744000     -2.191327000
H       -5.251111000      0.218521000     -1.998250000
H       -5.921902000     -1.176600000     -0.015966000
H       -5.892073000     -1.322541000      2.603359000


















