35
symmetry c1
C        4.174894000     -1.284207000     -1.914781000
O        4.185183000     -0.311255000     -0.888732000
C        2.999630000     -0.018305000     -0.276964000
C        3.086653000      0.972094000      0.755958000
O        4.347243000      1.463999000      0.963174000
C        4.508746000      2.446035000      1.967407000
C        1.957155000      1.363174000      1.455645000
C        1.782954000     -0.607442000     -0.594597000
C        0.649017000     -0.203250000      0.126475000
C        0.709389000      0.778452000      1.144737000
C       -0.622313000      0.952218000      1.635278000
C       -1.444262000      0.096797000      0.924638000
N       -0.657935000     -0.628246000      0.034429000
C       -2.859010000     -0.182015000      1.067035000
C       -3.749411000     -0.615696000      0.100329000
O       -3.321557000     -0.778938000     -1.192120000
C       -4.310092000     -1.067965000     -2.170833000
C       -5.065513000     -0.868614000      0.596397000
C       -5.159083000     -0.656391000      1.944945000
S       -3.646657000     -0.169502000      2.630633000
H        3.533122000     -0.982182000     -2.754540000
H        3.838906000     -2.262631000     -1.543361000
H        5.206928000     -1.365787000     -2.261789000
H        5.570919000      2.699649000      1.971523000
H        3.921037000      3.349419000      1.751188000
H        4.222907000      2.065445000      2.958195000
H        2.021454000      2.113359000      2.235347000
H        1.708361000     -1.359502000     -1.371399000
H       -0.946773000      1.628781000      2.414600000
H       -1.050365000     -1.203119000     -0.696051000
H       -3.787085000     -1.102546000     -3.128399000
H       -4.789218000     -2.038497000     -1.985322000
H       -5.078313000     -0.284976000     -2.205498000
H       -5.901466000     -1.184634000     -0.015400000
H       -6.035465000     -0.753742000      2.570981000




















