35
symmetry c1
C        4.865960000     -1.935099000     -0.630754000
O        4.544839000     -0.611619000     -0.249899000
C        3.236067000     -0.324959000      0.015218000
C        2.985682000      1.032933000      0.400851000
O        4.102284000      1.823755000      0.443501000
C        3.930876000      3.177032000      0.815234000
C        1.700692000      1.457361000      0.695405000
C        2.196858000     -1.242315000     -0.066857000
C        0.901159000     -0.795023000      0.233432000
C        0.628580000      0.541328000      0.610608000
C       -0.781175000      0.635216000      0.835169000
C       -1.326445000     -0.610800000      0.601628000
N       -0.295746000     -1.478192000      0.240031000
C       -2.705008000     -1.062579000      0.634796000
C       -3.833464000     -0.420009000      0.157725000
O       -3.720600000      0.768785000     -0.497843000
C       -4.901436000      1.313592000     -1.065988000
C       -5.050211000     -1.128439000      0.419642000
C       -4.842829000     -2.290267000      1.109935000
S       -3.170513000     -2.534685000      1.476880000
H        4.357663000     -2.224618000     -1.561370000
H        4.608164000     -2.657956000      0.156114000
H        5.945816000     -1.947780000     -0.791554000
H        4.926412000      3.624956000      0.786436000
H        3.272589000      3.710853000      0.115269000
H        3.520142000      3.271121000      1.830455000
H        1.510101000      2.483705000      0.987124000
H        2.377718000     -2.271869000     -0.353252000
H       -1.339867000      1.507675000      1.142388000
H       -0.440919000     -2.417754000     -0.096232000
H       -4.595327000      2.231712000     -1.570787000
H       -5.350297000      0.630074000     -1.799182000
H       -5.645996000      1.556831000     -0.295949000
H       -6.030515000     -0.795685000      0.101627000
H       -5.581273000     -3.017299000      1.419331000






