symmetry c1
 OpenBabel03202514023D

 35 37  0  0  0  0  0  0  0  0999 V2000
    4.1380   -1.1902   -2.0009 C   0  0  0  0  0  0  0  0  0  0  0  0
    4.1656   -0.2648   -0.9321 O   0  0  0  0  0  0  0  0  0  0  0  0
    2.9866    0.0158   -0.3021 C   0  0  0  0  0  0  0  0  0  0  0  0
    3.0911    0.9574    0.7740 C   0  0  0  0  0  0  0  0  0  0  0  0
    4.3589    1.4232    0.9968 O   0  0  0  0  0  0  0  0  0  0  0  0
    4.5378    2.3567    2.0435 C   0  0  0  0  0  0  0  0  0  0  0  0
    1.9700    1.3309    1.4964 C   0  0  0  0  0  0  0  0  0  0  0  0
    1.7607   -0.5422   -0.6403 C   0  0  0  0  0  0  0  0  0  0  0  0
    0.6353   -0.1561    0.1035 C   0  0  0  0  0  0  0  0  0  0  0  0
    0.7132    0.7767    1.1661 C   0  0  0  0  0  0  0  0  0  0  0  0
   -0.6126    0.9433    1.6724 C   0  0  0  0  0  0  0  0  0  0  0  0
   -1.4491    0.1293    0.9286 C   0  0  0  0  0  0  0  0  0  0  0  0
   -0.6778   -0.5557   -0.0043 N   0  0  0  0  0  0  0  0  0  0  0  0
   -2.8672   -0.1280    1.0550 C   0  0  0  0  0  0  0  0  0  0  0  0
   -3.7422   -0.6281    0.1051 C   0  0  0  0  0  0  0  0  0  0  0  0
   -3.2870   -0.9136   -1.1577 O   0  0  0  0  0  0  0  0  0  0  0  0
   -4.2547   -1.2939   -2.1262 C   0  0  0  0  0  0  0  0  0  0  0  0
   -5.0769   -0.8058    0.5830 C   0  0  0  0  0  0  0  0  0  0  0  0
   -5.2042   -0.4632    1.9013 C   0  0  0  0  0  0  0  0  0  0  0  0
   -3.7010    0.0588    2.5831 S   0  0  0  0  0  0  0  0  0  0  0  0
    3.4970   -0.8420   -2.8232 H   0  0  0  0  0  0  0  0  0  0  0  0
    3.7902   -2.1798   -1.6724 H   0  0  0  0  0  0  0  0  0  0  0  0
    5.1674   -1.2699   -2.3560 H   0  0  0  0  0  0  0  0  0  0  0  0
    5.6032    2.5964    2.0535 H   0  0  0  0  0  0  0  0  0  0  0  0
    3.9609    3.2763    1.8713 H   0  0  0  0  0  0  0  0  0  0  0  0
    4.2517    1.9354    3.0176 H   0  0  0  0  0  0  0  0  0  0  0  0
    2.0477    2.0439    2.3091 H   0  0  0  0  0  0  0  0  0  0  0  0
    1.6728   -1.2570   -1.4503 H   0  0  0  0  0  0  0  0  0  0  0  0
   -0.9230    1.5886    2.4833 H   0  0  0  0  0  0  0  0  0  0  0  0
   -1.0819   -1.1128   -0.7421 H   0  0  0  0  0  0  0  0  0  0  0  0
   -3.7100   -1.4266   -3.0628 H   0  0  0  0  0  0  0  0  0  0  0  0
   -4.7446   -2.2386   -1.8557 H   0  0  0  0  0  0  0  0  0  0  0  0
   -5.0158   -0.5142   -2.2567 H   0  0  0  0  0  0  0  0  0  0  0  0
   -5.9017   -1.1636   -0.0207 H   0  0  0  0  0  0  0  0  0  0  0  0
   -6.0984   -0.4866    2.5088 H   0  0  0  0  0  0  0  0  0  0  0  0
  1 22  1  0  0  0  0
  1  2  1  0  0  0  0
  2  3  1  0  0  0  0
  3  4  1  0  0  0  0
  4  5  1  0  0  0  0
  4  7  2  0  0  0  0
  5  6  1  0  0  0  0
  6 24  1  0  0  0  0
  6 26  1  0  0  0  0
  7 27  1  0  0  0  0
  8  3  2  0  0  0  0
  8  9  1  0  0  0  0
  9 10  2  0  0  0  0
 10  7  1  0  0  0  0
 10 11  1  0  0  0  0
 11 29  1  0  0  0  0
 12 14  1  0  0  0  0
 12 11  2  0  0  0  0
 13  9  1  0  0  0  0
 13 12  1  0  0  0  0
 14 20  1  0  0  0  0
 15 18  1  0  0  0  0
 15 14  2  0  0  0  0
 16 15  1  0  0  0  0
 17 32  1  0  0  0  0
 17 16  1  0  0  0  0
 18 19  2  0  0  0  0
 19 35  1  0  0  0  0
 19 20  1  0  0  0  0
 21  1  1  0  0  0  0
 23  1  1  0  0  0  0
 25  6  1  0  0  0  0
 28  8  1  0  0  0  0
 30 13  1  0  0  0  0
 31 17  1  0  0  0  0
 33 17  1  0  0  0  0
 34 18  1  0  0  0  0
M  END
