symmetry c1
 OpenBabel03202514013D

 35 37  0  0  0  0  0  0  0  0999 V2000
    4.9315   -1.9933   -0.3474 C   0  0  0  0  0  0  0  0  0  0  0  0
    4.5830   -0.6457   -0.0975 O   0  0  0  0  0  0  0  0  0  0  0  0
    3.2610   -0.3517    0.0790 C   0  0  0  0  0  0  0  0  0  0  0  0
    2.9824    1.0309    0.3336 C   0  0  0  0  0  0  0  0  0  0  0  0
    4.0898    1.8351    0.3624 O   0  0  0  0  0  0  0  0  0  0  0  0
    3.8907    3.2132    0.6077 C   0  0  0  0  0  0  0  0  0  0  0  0
    1.6812    1.4647    0.5275 C   0  0  0  0  0  0  0  0  0  0  0  0
    2.2329   -1.2847    0.0271 C   0  0  0  0  0  0  0  0  0  0  0  0
    0.9221   -0.8278    0.2257 C   0  0  0  0  0  0  0  0  0  0  0  0
    0.6212    0.5328    0.4694 C   0  0  0  0  0  0  0  0  0  0  0  0
   -0.7984    0.6316    0.6103 C   0  0  0  0  0  0  0  0  0  0  0  0
   -1.3238   -0.6378    0.4576 C   0  0  0  0  0  0  0  0  0  0  0  0
   -0.2688   -1.5245    0.2387 N   0  0  0  0  0  0  0  0  0  0  0  0
   -2.6930   -1.1009    0.4816 C   0  0  0  0  0  0  0  0  0  0  0  0
   -3.8494   -0.4001    0.1798 C   0  0  0  0  0  0  0  0  0  0  0  0
   -3.7769    0.9008   -0.2208 O   0  0  0  0  0  0  0  0  0  0  0  0
   -4.9824    1.5196   -0.6437 C   0  0  0  0  0  0  0  0  0  0  0  0
   -5.0436   -1.1735    0.3291 C   0  0  0  0  0  0  0  0  0  0  0  0
   -4.7956   -2.4488    0.7549 C   0  0  0  0  0  0  0  0  0  0  0  0
   -3.1056   -2.7253    1.0097 S   0  0  0  0  0  0  0  0  0  0  0  0
    4.4705   -2.3672   -1.2725 H   0  0  0  0  0  0  0  0  0  0  0  0
    4.6416   -2.6490    0.4858 H   0  0  0  0  0  0  0  0  0  0  0  0
    6.0179   -2.0075   -0.4554 H   0  0  0  0  0  0  0  0  0  0  0  0
    4.8834    3.6681    0.5896 H   0  0  0  0  0  0  0  0  0  0  0  0
    3.2646    3.6780   -0.1670 H   0  0  0  0  0  0  0  0  0  0  0  0
    3.4291    3.3891    1.5897 H   0  0  0  0  0  0  0  0  0  0  0  0
    1.4691    2.5102    0.7194 H   0  0  0  0  0  0  0  0  0  0  0  0
    2.4349   -2.3332   -0.1589 H   0  0  0  0  0  0  0  0  0  0  0  0
   -1.3779    1.5193    0.8158 H   0  0  0  0  0  0  0  0  0  0  0  0
   -0.3875   -2.4779   -0.0686 H   0  0  0  0  0  0  0  0  0  0  0  0
   -4.7071    2.5261   -0.9640 H   0  0  0  0  0  0  0  0  0  0  0  0
   -5.4371    0.9828   -1.4869 H   0  0  0  0  0  0  0  0  0  0  0  0
   -5.7099    1.5885    0.1762 H   0  0  0  0  0  0  0  0  0  0  0  0
   -6.0398   -0.8024    0.1222 H   0  0  0  0  0  0  0  0  0  0  0  0
   -5.5099   -3.2393    0.9391 H   0  0  0  0  0  0  0  0  0  0  0  0
  1  2  1  0  0  0  0
  1 22  1  0  0  0  0
  2  3  1  0  0  0  0
  3  4  1  0  0  0  0
  4  5  1  0  0  0  0
  4  7  2  0  0  0  0
  5  6  1  0  0  0  0
  6 26  1  0  0  0  0
  7 27  1  0  0  0  0
  8  3  2  0  0  0  0
  8  9  1  0  0  0  0
  9 13  1  0  0  0  0
  9 10  2  0  0  0  0
 10  7  1  0  0  0  0
 10 11  1  0  0  0  0
 11 29  1  0  0  0  0
 12 14  1  0  0  0  0
 12 11  2  0  0  0  0
 13 12  1  0  0  0  0
 14 20  1  0  0  0  0
 15 18  1  0  0  0  0
 15 14  2  0  0  0  0
 16 15  1  0  0  0  0
 17 16  1  0  0  0  0
 17 33  1  0  0  0  0
 18 19  2  0  0  0  0
 19 35  1  0  0  0  0
 19 20  1  0  0  0  0
 21  1  1  0  0  0  0
 23  1  1  0  0  0  0
 24  6  1  0  0  0  0
 25  6  1  0  0  0  0
 28  8  1  0  0  0  0
 30 13  1  0  0  0  0
 31 17  1  0  0  0  0
 32 17  1  0  0  0  0
 34 18  1  0  0  0  0
M  END
