symmetry c1
 OpenBabel03202514023D

 35 37  0  0  0  0  0  0  0  0999 V2000
    4.5750   -1.7269   -1.2713 C   0  0  0  0  0  0  0  0  0  0  0  0
    4.3956   -0.5094   -0.5747 O   0  0  0  0  0  0  0  0  0  0  0  0
    3.1416   -0.2146   -0.1207 C   0  0  0  0  0  0  0  0  0  0  0  0
    3.0353    1.0339    0.5770 C   0  0  0  0  0  0  0  0  0  0  0  0
    4.2111    1.7284    0.6755 O   0  0  0  0  0  0  0  0  0  0  0  0
    4.1819    2.9693    1.3523 C   0  0  0  0  0  0  0  0  0  0  0  0
    1.8195    1.4545    1.0886 C   0  0  0  0  0  0  0  0  0  0  0  0
    2.0299   -1.0265   -0.2960 C   0  0  0  0  0  0  0  0  0  0  0  0
    0.8045   -0.5855    0.2301 C   0  0  0  0  0  0  0  0  0  0  0  0
    0.6751    0.6436    0.9189 C   0  0  0  0  0  0  0  0  0  0  0  0
   -0.6989    0.7644    1.3023 C   0  0  0  0  0  0  0  0  0  0  0  0
   -1.3616   -0.3552    0.8483 C   0  0  0  0  0  0  0  0  0  0  0  0
   -0.4369   -1.1798    0.2103 N   0  0  0  0  0  0  0  0  0  0  0  0
   -2.7639   -0.7512    0.9774 C   0  0  0  0  0  0  0  0  0  0  0  0
   -3.8046   -0.5170    0.1007 C   0  0  0  0  0  0  0  0  0  0  0  0
   -3.5810    0.1655   -1.0563 O   0  0  0  0  0  0  0  0  0  0  0  0
   -4.7027    0.4300   -1.8844 C   0  0  0  0  0  0  0  0  0  0  0  0
   -5.0586   -1.0566    0.5373 C   0  0  0  0  0  0  0  0  0  0  0  0
   -4.9552   -1.7017    1.7389 C   0  0  0  0  0  0  0  0  0  0  0  0
   -3.3446   -1.6642    2.3602 S   0  0  0  0  0  0  0  0  0  0  0  0
    3.9662   -1.7651   -2.1857 H   0  0  0  0  0  0  0  0  0  0  0  0
    4.3291   -2.5945   -0.6427 H   0  0  0  0  0  0  0  0  0  0  0  0
    5.6324   -1.7658   -1.5409 H   0  0  0  0  0  0  0  0  0  0  0  0
    5.2038    3.3531    1.3204 H   0  0  0  0  0  0  0  0  0  0  0  0
    3.5099    3.6859    0.8592 H   0  0  0  0  0  0  0  0  0  0  0  0
    3.8704    2.8539    2.4001 H   0  0  0  0  0  0  0  0  0  0  0  0
    1.7375    2.3983    1.6153 H   0  0  0  0  0  0  0  0  0  0  0  0
    2.1018   -1.9721   -0.8209 H   0  0  0  0  0  0  0  0  0  0  0  0
   -1.1569    1.5777    1.8484 H   0  0  0  0  0  0  0  0  0  0  0  0
   -0.6778   -2.0409   -0.2554 H   0  0  0  0  0  0  0  0  0  0  0  0
   -4.3205    0.9980   -2.7345 H   0  0  0  0  0  0  0  0  0  0  0  0
   -5.1653   -0.4973   -2.2490 H   0  0  0  0  0  0  0  0  0  0  0  0
   -5.4596    1.0289   -1.3605 H   0  0  0  0  0  0  0  0  0  0  0  0
   -5.9880   -0.9688   -0.0117 H   0  0  0  0  0  0  0  0  0  0  0  0
   -5.7445   -2.1923    2.2926 H   0  0  0  0  0  0  0  0  0  0  0  0
  1 22  1  0  0  0  0
  1  2  1  0  0  0  0
  2  3  1  0  0  0  0
  3  4  1  0  0  0  0
  4  5  1  0  0  0  0
  4  7  2  0  0  0  0
  5  6  1  0  0  0  0
  6 26  1  0  0  0  0
  7 27  1  0  0  0  0
  8  3  2  0  0  0  0
  8  9  1  0  0  0  0
  9 10  2  0  0  0  0
 10  7  1  0  0  0  0
 10 11  1  0  0  0  0
 11 29  1  0  0  0  0
 12 14  1  0  0  0  0
 12 11  2  0  0  0  0
 13  9  1  0  0  0  0
 13 12  1  0  0  0  0
 14 20  1  0  0  0  0
 15 18  1  0  0  0  0
 15 14  2  0  0  0  0
 16 15  1  0  0  0  0
 17 33  1  0  0  0  0
 17 16  1  0  0  0  0
 18 19  2  0  0  0  0
 19 35  1  0  0  0  0
 19 20  1  0  0  0  0
 21  1  1  0  0  0  0
 23  1  1  0  0  0  0
 24  6  1  0  0  0  0
 25  6  1  0  0  0  0
 28  8  1  0  0  0  0
 30 13  1  0  0  0  0
 31 17  1  0  0  0  0
 32 17  1  0  0  0  0
 34 18  1  0  0  0  0
M  END
