symmetry c1
 OpenBabel03202514013D

 35 37  0  0  0  0  0  0  0  0999 V2000
    4.6730   -1.7915   -1.1062 C   0  0  0  0  0  0  0  0  0  0  0  0
    4.4432   -0.5371   -0.4951 O   0  0  0  0  0  0  0  0  0  0  0  0
    3.1716   -0.2512   -0.0867 C   0  0  0  0  0  0  0  0  0  0  0  0
    3.0143    1.0359    0.5258 C   0  0  0  0  0  0  0  0  0  0  0  0
    4.1674    1.7699    0.6033 O   0  0  0  0  0  0  0  0  0  0  0  0
    4.0877    3.0510    1.1960 C   0  0  0  0  0  0  0  0  0  0  0  0
    1.7758    1.4524    0.9837 C   0  0  0  0  0  0  0  0  0  0  0  0
    2.0877   -1.1058   -0.2309 C   0  0  0  0  0  0  0  0  0  0  0  0
    0.8386   -0.6678    0.2388 C   0  0  0  0  0  0  0  0  0  0  0  0
    0.6587    0.5990    0.8429 C   0  0  0  0  0  0  0  0  0  0  0  0
   -0.7259    0.7029    1.1912 C   0  0  0  0  0  0  0  0  0  0  0  0
   -1.3453   -0.4650    0.8025 C   0  0  0  0  0  0  0  0  0  0  0  0
   -0.3851   -1.2984    0.2312 N   0  0  0  0  0  0  0  0  0  0  0  0
   -2.7433   -0.8800    0.9014 C   0  0  0  0  0  0  0  0  0  0  0  0
   -3.8093   -0.4895    0.1150 C   0  0  0  0  0  0  0  0  0  0  0  0
   -3.6118    0.3574   -0.9322 O   0  0  0  0  0  0  0  0  0  0  0  0
   -4.7495    0.7270   -1.6955 C   0  0  0  0  0  0  0  0  0  0  0  0
   -5.0604   -1.0640    0.5146 C   0  0  0  0  0  0  0  0  0  0  0  0
   -4.9328   -1.8812    1.6035 C   0  0  0  0  0  0  0  0  0  0  0  0
   -3.3028   -1.9617    2.1682 S   0  0  0  0  0  0  0  0  0  0  0  0
    4.0858   -1.9076   -2.0282 H   0  0  0  0  0  0  0  0  0  0  0  0
    4.4384   -2.6232   -0.4270 H   0  0  0  0  0  0  0  0  0  0  0  0
    5.7366   -1.8159   -1.3514 H   0  0  0  0  0  0  0  0  0  0  0  0
    5.0986    3.4624    1.1596 H   0  0  0  0  0  0  0  0  0  0  0  0
    3.4066    3.7133    0.6430 H   0  0  0  0  0  0  0  0  0  0  0  0
    3.7563    2.9951    2.2425 H   0  0  0  0  0  0  0  0  0  0  0  0
    1.6553    2.4252    1.4464 H   0  0  0  0  0  0  0  0  0  0  0  0
    2.1982   -2.0810   -0.6907 H   0  0  0  0  0  0  0  0  0  0  0  0
   -1.2184    1.5348    1.6756 H   0  0  0  0  0  0  0  0  0  0  0  0
   -0.5921   -2.1915   -0.1882 H   0  0  0  0  0  0  0  0  0  0  0  0
   -4.3840    1.4046   -2.4693 H   0  0  0  0  0  0  0  0  0  0  0  0
   -5.2189   -0.1446   -2.1717 H   0  0  0  0  0  0  0  0  0  0  0  0
   -5.4963    1.2487   -1.0820 H   0  0  0  0  0  0  0  0  0  0  0  0
   -6.0047   -0.8820    0.0165 H   0  0  0  0  0  0  0  0  0  0  0  0
   -5.7131   -2.4404    2.1024 H   0  0  0  0  0  0  0  0  0  0  0  0
  1  2  1  0  0  0  0
  1 22  1  0  0  0  0
  2  3  1  0  0  0  0
  3  4  1  0  0  0  0
  4  5  1  0  0  0  0
  4  7  2  0  0  0  0
  5  6  1  0  0  0  0
  6 26  1  0  0  0  0
  7 27  1  0  0  0  0
  8  3  2  0  0  0  0
  8  9  1  0  0  0  0
  9 10  2  0  0  0  0
 10  7  1  0  0  0  0
 10 11  1  0  0  0  0
 11 29  1  0  0  0  0
 12 14  1  0  0  0  0
 12 11  2  0  0  0  0
 13  9  1  0  0  0  0
 13 12  1  0  0  0  0
 14 20  1  0  0  0  0
 15 18  1  0  0  0  0
 15 14  2  0  0  0  0
 16 15  1  0  0  0  0
 17 33  1  0  0  0  0
 17 16  1  0  0  0  0
 18 19  2  0  0  0  0
 19 35  1  0  0  0  0
 19 20  1  0  0  0  0
 21  1  1  0  0  0  0
 23  1  1  0  0  0  0
 24  6  1  0  0  0  0
 25  6  1  0  0  0  0
 28  8  1  0  0  0  0
 30 13  1  0  0  0  0
 31 17  1  0  0  0  0
 32 17  1  0  0  0  0
 34 18  1  0  0  0  0
M  END
