symmetry c1
 OpenBabel03202514013D

 35 37  0  0  0  0  0  0  0  0999 V2000
    4.9016   -1.9677   -0.4893 C   0  0  0  0  0  0  0  0  0  0  0  0
    4.5656   -0.6307   -0.1741 O   0  0  0  0  0  0  0  0  0  0  0  0
    3.2496   -0.3399    0.0471 C   0  0  0  0  0  0  0  0  0  0  0  0
    2.9837    1.0319    0.3667 C   0  0  0  0  0  0  0  0  0  0  0  0
    4.0952    1.8302    0.4019 O   0  0  0  0  0  0  0  0  0  0  0  0
    3.9088    3.1972    0.7110 C   0  0  0  0  0  0  0  0  0  0  0  0
    1.6898    1.4617    0.6109 C   0  0  0  0  0  0  0  0  0  0  0  0
    2.2166   -1.2660   -0.0191 C   0  0  0  0  0  0  0  0  0  0  0  0
    0.9125   -0.8132    0.2302 C   0  0  0  0  0  0  0  0  0  0  0  0
    0.6243    0.5370    0.5399 C   0  0  0  0  0  0  0  0  0  0  0  0
   -0.7909    0.6337    0.7233 C   0  0  0  0  0  0  0  0  0  0  0  0
   -1.3250   -0.6254    0.5315 C   0  0  0  0  0  0  0  0  0  0  0  0
   -0.2810   -1.5039    0.2407 N   0  0  0  0  0  0  0  0  0  0  0  0
   -2.6981   -1.0838    0.5577 C   0  0  0  0  0  0  0  0  0  0  0  0
   -3.8424   -0.4070    0.1718 C   0  0  0  0  0  0  0  0  0  0  0  0
   -3.7528    0.8472   -0.3538 O   0  0  0  0  0  0  0  0  0  0  0  0
   -4.9454    1.4279   -0.8588 C   0  0  0  0  0  0  0  0  0  0  0  0
   -5.0465   -1.1529    0.3783 C   0  0  0  0  0  0  0  0  0  0  0  0
   -4.8158   -2.3802    0.9351 C   0  0  0  0  0  0  0  0  0  0  0  0
   -3.1335   -2.6423    1.2449 S   0  0  0  0  0  0  0  0  0  0  0  0
    4.4166   -2.3001   -1.4180 H   0  0  0  0  0  0  0  0  0  0  0  0
    4.6288   -2.6571    0.3220 H   0  0  0  0  0  0  0  0  0  0  0  0
    5.9850   -1.9813   -0.6242 H   0  0  0  0  0  0  0  0  0  0  0  0
    4.9028    3.6487    0.6877 H   0  0  0  0  0  0  0  0  0  0  0  0
    3.2659    3.6971   -0.0274 H   0  0  0  0  0  0  0  0  0  0  0  0
    3.4724    3.3323    1.7107 H   0  0  0  0  0  0  0  0  0  0  0  0
    1.4874    2.4988    0.8523 H   0  0  0  0  0  0  0  0  0  0  0  0
    2.4090   -2.3063   -0.2547 H   0  0  0  0  0  0  0  0  0  0  0  0
   -1.3613    1.5150    0.9779 H   0  0  0  0  0  0  0  0  0  0  0  0
   -0.4134   -2.4504   -0.0816 H   0  0  0  0  0  0  0  0  0  0  0  0
   -4.6562    2.3958   -1.2723 H   0  0  0  0  0  0  0  0  0  0  0  0
   -5.3893    0.8129   -1.6530 H   0  0  0  0  0  0  0  0  0  0  0  0
   -5.6876    1.5829   -0.0641 H   0  0  0  0  0  0  0  0  0  0  0  0
   -6.0358   -0.7983    0.1167 H   0  0  0  0  0  0  0  0  0  0  0  0
   -5.5406   -3.1439    1.1813 H   0  0  0  0  0  0  0  0  0  0  0  0
  1  2  1  0  0  0  0
  1 22  1  0  0  0  0
  2  3  1  0  0  0  0
  3  4  1  0  0  0  0
  4  5  1  0  0  0  0
  4  7  2  0  0  0  0
  5  6  1  0  0  0  0
  6 26  1  0  0  0  0
  7 27  1  0  0  0  0
  8  3  2  0  0  0  0
  8  9  1  0  0  0  0
  9 13  1  0  0  0  0
  9 10  2  0  0  0  0
 10  7  1  0  0  0  0
 10 11  1  0  0  0  0
 11 29  1  0  0  0  0
 12 14  1  0  0  0  0
 12 11  2  0  0  0  0
 13 12  1  0  0  0  0
 14 20  1  0  0  0  0
 15 18  1  0  0  0  0
 15 14  2  0  0  0  0
 16 15  1  0  0  0  0
 17 16  1  0  0  0  0
 17 33  1  0  0  0  0
 18 19  2  0  0  0  0
 19 35  1  0  0  0  0
 19 20  1  0  0  0  0
 21  1  1  0  0  0  0
 23  1  1  0  0  0  0
 24  6  1  0  0  0  0
 25  6  1  0  0  0  0
 28  8  1  0  0  0  0
 30 13  1  0  0  0  0
 31 17  1  0  0  0  0
 32 17  1  0  0  0  0
 34 18  1  0  0  0  0
M  END
