symmetry c1
 OpenBabel03202514023D

 35 37  0  0  0  0  0  0  0  0999 V2000
    4.2254   -1.3775   -1.8170 C   0  0  0  0  0  0  0  0  0  0  0  0
    4.2130   -0.3564   -0.8388 O   0  0  0  0  0  0  0  0  0  0  0  0
    3.0187   -0.0538   -0.2493 C   0  0  0  0  0  0  0  0  0  0  0  0
    3.0827    0.9867    0.7350 C   0  0  0  0  0  0  0  0  0  0  0  0
    4.3338    1.5084    0.9261 O   0  0  0  0  0  0  0  0  0  0  0  0
    4.4724    2.5410    1.8819 C   0  0  0  0  0  0  0  0  0  0  0  0
    1.9422    1.3926    1.4078 C   0  0  0  0  0  0  0  0  0  0  0  0
    1.8140   -0.6773   -0.5456 C   0  0  0  0  0  0  0  0  0  0  0  0
    0.6687   -0.2572    0.1482 C   0  0  0  0  0  0  0  0  0  0  0  0
    0.7062    0.7735    1.1175 C   0  0  0  0  0  0  0  0  0  0  0  0
   -0.6323    0.9491    1.5905 C   0  0  0  0  0  0  0  0  0  0  0  0
   -1.4358    0.0499    0.9161 C   0  0  0  0  0  0  0  0  0  0  0  0
   -0.6307   -0.7087    0.0707 N   0  0  0  0  0  0  0  0  0  0  0  0
   -2.8475   -0.2506    1.0728 C   0  0  0  0  0  0  0  0  0  0  0  0
   -3.7600   -0.6017    0.0945 C   0  0  0  0  0  0  0  0  0  0  0  0
   -3.3689   -0.6287   -1.2177 O   0  0  0  0  0  0  0  0  0  0  0  0
   -4.3840   -0.8206   -2.1927 C   0  0  0  0  0  0  0  0  0  0  0  0
   -5.0563   -0.9277    0.6018 C   0  0  0  0  0  0  0  0  0  0  0  0
   -5.1091   -0.8573    1.9675 C   0  0  0  0  0  0  0  0  0  0  0  0
   -3.5838   -0.4163    2.6532 S   0  0  0  0  0  0  0  0  0  0  0  0
    3.5847   -1.1266   -2.6742 H   0  0  0  0  0  0  0  0  0  0  0  0
    3.9027   -2.3424   -1.4010 H   0  0  0  0  0  0  0  0  0  0  0  0
    5.2610   -1.4587   -2.1533 H   0  0  0  0  0  0  0  0  0  0  0  0
    5.5302    2.8122    1.8800 H   0  0  0  0  0  0  0  0  0  0  0  0
    3.8714    3.4228    1.6180 H   0  0  0  0  0  0  0  0  0  0  0  0
    4.1860    2.2047    2.8883 H   0  0  0  0  0  0  0  0  0  0  0  0
    1.9889    2.1806    2.1506 H   0  0  0  0  0  0  0  0  0  0  0  0
    1.7570   -1.4672   -1.2855 H   0  0  0  0  0  0  0  0  0  0  0  0
   -0.9740    1.6555    2.3352 H   0  0  0  0  0  0  0  0  0  0  0  0
   -1.0051   -1.3201   -0.6391 H   0  0  0  0  0  0  0  0  0  0  0  0
   -3.8885   -0.7505   -3.1629 H   0  0  0  0  0  0  0  0  0  0  0  0
   -4.8537   -1.8089   -2.0976 H   0  0  0  0  0  0  0  0  0  0  0  0
   -5.1570   -0.0444   -2.1235 H   0  0  0  0  0  0  0  0  0  0  0  0
   -5.9072   -1.1928   -0.0137 H   0  0  0  0  0  0  0  0  0  0  0  0
   -5.9650   -1.0313    2.6054 H   0  0  0  0  0  0  0  0  0  0  0  0
  1 22  1  0  0  0  0
  1  2  1  0  0  0  0
  2  3  1  0  0  0  0
  3  4  1  0  0  0  0
  4  5  1  0  0  0  0
  4  7  2  0  0  0  0
  5  6  1  0  0  0  0
  6 26  1  0  0  0  0
  7 27  1  0  0  0  0
  8  3  2  0  0  0  0
  8  9  1  0  0  0  0
  9 10  2  0  0  0  0
 10  7  1  0  0  0  0
 10 11  1  0  0  0  0
 11 29  1  0  0  0  0
 12 14  1  0  0  0  0
 12 11  2  0  0  0  0
 13  9  1  0  0  0  0
 13 12  1  0  0  0  0
 14 20  1  0  0  0  0
 15 18  1  0  0  0  0
 15 14  2  0  0  0  0
 16 15  1  0  0  0  0
 17 33  1  0  0  0  0
 17 32  1  0  0  0  0
 17 16  1  0  0  0  0
 18 19  2  0  0  0  0
 19 35  1  0  0  0  0
 19 20  1  0  0  0  0
 21  1  1  0  0  0  0
 23  1  1  0  0  0  0
 24  6  1  0  0  0  0
 25  6  1  0  0  0  0
 28  8  1  0  0  0  0
 30 13  1  0  0  0  0
 31 17  1  0  0  0  0
 34 18  1  0  0  0  0
M  END
