symmetry c1
 OpenBabel03202514023D

 35 37  0  0  0  0  0  0  0  0999 V2000
    4.4729   -1.6508   -1.4283 C   0  0  0  0  0  0  0  0  0  0  0  0
    4.3454   -0.4782   -0.6482 O   0  0  0  0  0  0  0  0  0  0  0  0
    3.1091   -0.1737   -0.1539 C   0  0  0  0  0  0  0  0  0  0  0  0
    3.0558    1.0273    0.6281 C   0  0  0  0  0  0  0  0  0  0  0  0
    4.2558    1.6744    0.7529 O   0  0  0  0  0  0  0  0  0  0  0  0
    4.2789    2.8668    1.5121 C   0  0  0  0  0  0  0  0  0  0  0  0
    1.8627    1.4520    1.1877 C   0  0  0  0  0  0  0  0  0  0  0  0
    1.9679   -0.9348   -0.3645 C   0  0  0  0  0  0  0  0  0  0  0  0
    0.7666   -0.4913    0.2123 C   0  0  0  0  0  0  0  0  0  0  0  0
    0.6892    0.6923    0.9839 C   0  0  0  0  0  0  0  0  0  0  0  0
   -0.6746    0.8331    1.3954 C   0  0  0  0  0  0  0  0  0  0  0  0
   -1.3823   -0.2292    0.8749 C   0  0  0  0  0  0  0  0  0  0  0  0
   -0.4936   -1.0439    0.1766 N   0  0  0  0  0  0  0  0  0  0  0  0
   -2.7869   -0.6031    1.0284 C   0  0  0  0  0  0  0  0  0  0  0  0
   -3.7980   -0.5423    0.0894 C   0  0  0  0  0  0  0  0  0  0  0  0
   -3.5440   -0.0415   -1.1525 O   0  0  0  0  0  0  0  0  0  0  0  0
   -4.6465    0.1004   -2.0351 C   0  0  0  0  0  0  0  0  0  0  0  0
   -5.0540   -1.0452    0.5607 C   0  0  0  0  0  0  0  0  0  0  0  0
   -4.9786   -1.5015    1.8482 C   0  0  0  0  0  0  0  0  0  0  0  0
   -3.3904   -1.3336    2.5051 S   0  0  0  0  0  0  0  0  0  0  0  0
    3.8497   -1.6067   -2.3326 H   0  0  0  0  0  0  0  0  0  0  0  0
    4.2070   -2.5505   -0.8556 H   0  0  0  0  0  0  0  0  0  0  0  0
    5.5242   -1.7061   -1.7179 H   0  0  0  0  0  0  0  0  0  0  0  0
    5.3127    3.2179    1.4888 H   0  0  0  0  0  0  0  0  0  0  0  0
    3.6245    3.6370    1.0799 H   0  0  0  0  0  0  0  0  0  0  0  0
    3.9791    2.6909    2.5549 H   0  0  0  0  0  0  0  0  0  0  0  0
    1.8206    2.3603    1.7777 H   0  0  0  0  0  0  0  0  0  0  0  0
    1.9996   -1.8441   -0.9534 H   0  0  0  0  0  0  0  0  0  0  0  0
   -1.0972    1.6241    1.9999 H   0  0  0  0  0  0  0  0  0  0  0  0
   -0.7718   -1.8589   -0.3477 H   0  0  0  0  0  0  0  0  0  0  0  0
   -4.2454    0.5459   -2.9474 H   0  0  0  0  0  0  0  0  0  0  0  0
   -5.0996   -0.8706   -2.2772 H   0  0  0  0  0  0  0  0  0  0  0  0
   -5.4156    0.7631   -1.6168 H   0  0  0  0  0  0  0  0  0  0  0  0
   -5.9658   -1.0620   -0.0234 H   0  0  0  0  0  0  0  0  0  0  0  0
   -5.7778   -1.9176    2.4470 H   0  0  0  0  0  0  0  0  0  0  0  0
  1 22  1  0  0  0  0
  1  2  1  0  0  0  0
  2  3  1  0  0  0  0
  3  4  1  0  0  0  0
  4  5  1  0  0  0  0
  4  7  2  0  0  0  0
  5  6  1  0  0  0  0
  6 26  1  0  0  0  0
  7 27  1  0  0  0  0
  8  3  2  0  0  0  0
  8  9  1  0  0  0  0
  9 10  2  0  0  0  0
 10  7  1  0  0  0  0
 10 11  1  0  0  0  0
 11 29  1  0  0  0  0
 12 14  1  0  0  0  0
 12 11  2  0  0  0  0
 13  9  1  0  0  0  0
 13 12  1  0  0  0  0
 14 20  1  0  0  0  0
 15 18  1  0  0  0  0
 15 14  2  0  0  0  0
 16 15  1  0  0  0  0
 17 33  1  0  0  0  0
 17 16  1  0  0  0  0
 18 19  2  0  0  0  0
 19 35  1  0  0  0  0
 19 20  1  0  0  0  0
 21  1  1  0  0  0  0
 23  1  1  0  0  0  0
 24  6  1  0  0  0  0
 25  6  1  0  0  0  0
 28  8  1  0  0  0  0
 30 13  1  0  0  0  0
 31 17  1  0  0  0  0
 32 17  1  0  0  0  0
 34 18  1  0  0  0  0
M  END
