symmetry c1
 OpenBabel03202514023D

 35 37  0  0  0  0  0  0  0  0999 V2000
    4.0813   -0.9882   -2.1585 C   0  0  0  0  0  0  0  0  0  0  0  0
    4.1372   -0.1668   -1.0090 O   0  0  0  0  0  0  0  0  0  0  0  0
    2.9678    0.0862   -0.3497 C   0  0  0  0  0  0  0  0  0  0  0  0
    3.1005    0.9238    0.8065 C   0  0  0  0  0  0  0  0  0  0  0  0
    4.3809    1.3349    1.0628 O   0  0  0  0  0  0  0  0  0  0  0  0
    4.5879    2.1646    2.1887 C   0  0  0  0  0  0  0  0  0  0  0  0
    1.9923    1.2588    1.5665 C   0  0  0  0  0  0  0  0  0  0  0  0
    1.7265   -0.4064   -0.7304 C   0  0  0  0  0  0  0  0  0  0  0  0
    0.6138   -0.0590    0.0506 C   0  0  0  0  0  0  0  0  0  0  0  0
    0.7202    0.7685    1.1954 C   0  0  0  0  0  0  0  0  0  0  0  0
   -0.5963    0.9142    1.7281 C   0  0  0  0  0  0  0  0  0  0  0  0
   -1.4574    0.1899    0.9191 C   0  0  0  0  0  0  0  0  0  0  0  0
   -0.7103   -0.4040   -0.0914 N   0  0  0  0  0  0  0  0  0  0  0  0
   -2.8839   -0.0186    1.0114 C   0  0  0  0  0  0  0  0  0  0  0  0
   -3.7349   -0.6404    0.1107 C   0  0  0  0  0  0  0  0  0  0  0  0
   -3.2381   -1.1540   -1.0623 O   0  0  0  0  0  0  0  0  0  0  0  0
   -4.1697   -1.7306   -1.9673 C   0  0  0  0  0  0  0  0  0  0  0  0
   -5.0993   -0.6775    0.5322 C   0  0  0  0  0  0  0  0  0  0  0  0
   -5.2802   -0.0917    1.7543 C   0  0  0  0  0  0  0  0  0  0  0  0
   -3.7936    0.5046    2.4134 S   0  0  0  0  0  0  0  0  0  0  0  0
    3.4469   -0.5488   -2.9413 H   0  0  0  0  0  0  0  0  0  0  0  0
    3.7085   -1.9946   -1.9210 H   0  0  0  0  0  0  0  0  0  0  0  0
    5.1070   -1.0616   -2.5256 H   0  0  0  0  0  0  0  0  0  0  0  0
    5.6591    2.3752    2.2138 H   0  0  0  0  0  0  0  0  0  0  0  0
    4.0342    3.1104    2.1043 H   0  0  0  0  0  0  0  0  0  0  0  0
    4.2947    1.6640    3.1223 H   0  0  0  0  0  0  0  0  0  0  0  0
    2.0917    1.8922    2.4405 H   0  0  0  0  0  0  0  0  0  0  0  0
    1.6168   -1.0409   -1.6022 H   0  0  0  0  0  0  0  0  0  0  0  0
   -0.8828    1.4861    2.6006 H   0  0  0  0  0  0  0  0  0  0  0  0
   -1.1268   -0.9474   -0.8323 H   0  0  0  0  0  0  0  0  0  0  0  0
   -3.5898   -2.0560   -2.8329 H   0  0  0  0  0  0  0  0  0  0  0  0
   -4.6749   -2.5980   -1.5231 H   0  0  0  0  0  0  0  0  0  0  0  0
   -4.9199   -0.9971   -2.2887 H   0  0  0  0  0  0  0  0  0  0  0  0
   -5.9064   -1.1145   -0.0425 H   0  0  0  0  0  0  0  0  0  0  0  0
   -6.2029    0.0227    2.3061 H   0  0  0  0  0  0  0  0  0  0  0  0
  1 22  1  0  0  0  0
  1  2  1  0  0  0  0
  2  3  1  0  0  0  0
  3  4  1  0  0  0  0
  4  5  1  0  0  0  0
  4  7  2  0  0  0  0
  5  6  1  0  0  0  0
  6 24  1  0  0  0  0
  6 26  1  0  0  0  0
  7 27  1  0  0  0  0
  8  3  2  0  0  0  0
  8  9  1  0  0  0  0
  9 10  2  0  0  0  0
 10  7  1  0  0  0  0
 10 11  1  0  0  0  0
 11 29  1  0  0  0  0
 12 14  1  0  0  0  0
 12 11  2  0  0  0  0
 13  9  1  0  0  0  0
 13 12  1  0  0  0  0
 14 20  1  0  0  0  0
 15 18  1  0  0  0  0
 15 14  2  0  0  0  0
 16 15  1  0  0  0  0
 17 32  1  0  0  0  0
 17 16  1  0  0  0  0
 18 19  2  0  0  0  0
 19 35  1  0  0  0  0
 19 20  1  0  0  0  0
 21  1  1  0  0  0  0
 23  1  1  0  0  0  0
 25  6  1  0  0  0  0
 28  8  1  0  0  0  0
 30 13  1  0  0  0  0
 31 17  1  0  0  0  0
 33 17  1  0  0  0  0
 34 18  1  0  0  0  0
M  END
